/*
 crossSection dictionary
 Generatd by OpenMC2FoamXS 
 03/02/2023 21:08:20
 OpenMC results file: results

effective delayed neutron fraction, prompt neutron spectrum
*/

FoamFile
{
    version     2.0;
    format      ascii;
    class       dictionary;
    location    constant;
    object      results;
}

fastNeutrons          true;

adjustDiscFactors     false;

useGivenDiscFactors   false;

promptGenerationTime 1.26e-06;

Beta (3.840229e-05 3.204708e-04 2.395533e-04 5.225471e-04 2.802611e-04 7.782030e-05  );

lambda (1.338711e-02 3.053720e-02 1.133525e-01 2.974556e-01 8.488467e-01 2.754462e+00  );

feedbackCoeffFastDoppler 2.2809e-05; // default = 0.037772632

feedbackCoeffTFuel 0;

feedbackCoeffTClad 0;

feedbackCoeffTCool 0;

feedbackCoeffRhoCool 14.2138e-05; // default = 4.55597e-05

feedbackCoeffTStruct 0;

absoluteDrivelineExpansionCoeff 0;

controlRodReactivityMap ( ( 0.1 -0.01 ) ( 0 0 ) ( -0.1 0.01 ) ); 

initPrecursorsLiquidFuel true;


 energyGroups 6 ;

 precGroups 6 ;

zones 
 ( 

hx 
{ 
 fuelFraction 1.000000e+00 ; 

 IV nonuniform List<scalar> 6 (4.049811e-08 7.520416e-08 2.080079e-07 5.778363e-07 1.179520e-06 3.283968e-06  );

 D nonuniform List<scalar> 6 (4.739342e-02 5.807554e-02 4.715150e-02 4.681505e-02 4.269494e-02 2.895132e-02  );

 nuSigmaEff nonuniform List<scalar> 6 (1.569087e+00 9.611975e-01 3.448235e-01 5.105045e-01 9.043864e-01 2.323125e+00  );

 sigmaPow nonuniform List<scalar> 6 (1.388707e-11 9.329269e-12 3.193437e-12 4.706478e-12 8.336679e-12 2.142357e-11  );

 scatteringMatrixP0 6 6 (
 (4.262767e+00 1.853378e+00 2.745138e-01 2.192772e-03 1.899822e-04 8.485272e-06 )
 (0.000000e+00 4.789632e+00 5.774292e-01 2.314278e-03 2.239785e-04 1.027292e-05 )
 (0.000000e+00 0.000000e+00 6.618790e+00 6.330077e-02 3.857168e-04 7.253211e-06 )
 (0.000000e+00 0.000000e+00 0.000000e+00 6.304730e+00 5.218775e-02 0.000000e+00 )
 (0.000000e+00 0.000000e+00 0.000000e+00 0.000000e+00 6.444435e+00 4.171884e-03 )
 (0.000000e+00 0.000000e+00 0.000000e+00 0.000000e+00 0.000000e+00 7.720427e+00 )
 );

 sigmaDisapp nonuniform List<scalar> 6 (2.770648e+00 9.500223e-01 4.505454e-01 8.153118e-01 1.362709e+00 3.756539e+00  );

 chiPrompt nonuniform List<scalar> 6 (3.999971e-01 4.901399e-01 1.084772e-01 1.239670e-03 1.388660e-04 7.247773e-06  );

 chiDelayed nonuniform List<scalar> 6 (2.817493e-03 3.826905e-01 5.922811e-01 2.000747e-02 2.084114e-03 1.194147e-04  );

 Beta nonuniform List<scalar> 6 (3.840229e-05 3.204708e-04 2.395533e-04 5.225471e-04 2.802611e-04 7.782030e-05  );

 lambda nonuniform List<scalar> 6 (1.338711e-02 3.053720e-02 1.133525e-01 2.974556e-01 8.488467e-01 2.754462e+00  );

 discFactor nonuniform List<scalar> 6 (1.000000e+00 1.000000e+00 1.000000e+00 1.000000e+00 1.000000e+00 1.000000e+00  );

 integralFlux nonuniform List<scalar> 6 (1.000000e+00 1.000000e+00 1.000000e+00 1.000000e+00 1.000000e+00 1.000000e+00  );

 }

intermed 
{ 
 fuelFraction 1.000000e+00 ; 

 IV nonuniform List<scalar> 6 (4.049811e-08 7.520416e-08 2.080079e-07 5.778363e-07 1.179520e-06 3.283968e-06  );

 D nonuniform List<scalar> 6 (4.739342e-02 5.807554e-02 4.715150e-02 4.681505e-02 4.269494e-02 2.895132e-02  );

 nuSigmaEff nonuniform List<scalar> 6 (1.569087e+00 9.611975e-01 3.448235e-01 5.105045e-01 9.043864e-01 2.323125e+00  );

 sigmaPow nonuniform List<scalar> 6 (1.388707e-11 9.329269e-12 3.193437e-12 4.706478e-12 8.336679e-12 2.142357e-11  );

 scatteringMatrixP0 6 6 (
 (4.262767e+00 1.853378e+00 2.745138e-01 2.192772e-03 1.899822e-04 8.485272e-06 )
 (0.000000e+00 4.789632e+00 5.774292e-01 2.314278e-03 2.239785e-04 1.027292e-05 )
 (0.000000e+00 0.000000e+00 6.618790e+00 6.330077e-02 3.857168e-04 7.253211e-06 )
 (0.000000e+00 0.000000e+00 0.000000e+00 6.304730e+00 5.218775e-02 0.000000e+00 )
 (0.000000e+00 0.000000e+00 0.000000e+00 0.000000e+00 6.444435e+00 4.171884e-03 )
 (0.000000e+00 0.000000e+00 0.000000e+00 0.000000e+00 0.000000e+00 7.720427e+00 )
 );

 sigmaDisapp nonuniform List<scalar> 6 (2.770648e+00 9.500223e-01 4.505454e-01 8.153118e-01 1.362709e+00 3.756539e+00  );

 chiPrompt nonuniform List<scalar> 6 (3.999971e-01 4.901399e-01 1.084772e-01 1.239670e-03 1.388660e-04 7.247773e-06  );

 chiDelayed nonuniform List<scalar> 6 (2.817493e-03 3.826905e-01 5.922811e-01 2.000747e-02 2.084114e-03 1.194147e-04  );

 Beta nonuniform List<scalar> 6 (3.840229e-05 3.204708e-04 2.395533e-04 5.225471e-04 2.802611e-04 7.782030e-05  );

 lambda nonuniform List<scalar> 6 (1.338711e-02 3.053720e-02 1.133525e-01 2.974556e-01 8.488467e-01 2.754462e+00  );

 discFactor nonuniform List<scalar> 6 (1.000000e+00 1.000000e+00 1.000000e+00 1.000000e+00 1.000000e+00 1.000000e+00  );

 integralFlux nonuniform List<scalar> 6 (1.000000e+00 1.000000e+00 1.000000e+00 1.000000e+00 1.000000e+00 1.000000e+00  );

 }

main_fd 
{ 
 fuelFraction 1.000000e+00 ; 

 IV nonuniform List<scalar> 6 (4.049811e-08 7.520416e-08 2.080079e-07 5.778363e-07 1.179520e-06 3.283968e-06  );

 D nonuniform List<scalar> 6 (4.739342e-02 5.807554e-02 4.715150e-02 4.681505e-02 4.269494e-02 2.895132e-02  );

 nuSigmaEff nonuniform List<scalar> 6 (1.569087e+00 9.611975e-01 3.448235e-01 5.105045e-01 9.043864e-01 2.323125e+00  );

 sigmaPow nonuniform List<scalar> 6 (1.388707e-11 9.329269e-12 3.193437e-12 4.706478e-12 8.336679e-12 2.142357e-11  );

 scatteringMatrixP0 6 6 (
 (4.262767e+00 1.853378e+00 2.745138e-01 2.192772e-03 1.899822e-04 8.485272e-06 )
 (0.000000e+00 4.789632e+00 5.774292e-01 2.314278e-03 2.239785e-04 1.027292e-05 )
 (0.000000e+00 0.000000e+00 6.618790e+00 6.330077e-02 3.857168e-04 7.253211e-06 )
 (0.000000e+00 0.000000e+00 0.000000e+00 6.304730e+00 5.218775e-02 0.000000e+00 )
 (0.000000e+00 0.000000e+00 0.000000e+00 0.000000e+00 6.444435e+00 4.171884e-03 )
 (0.000000e+00 0.000000e+00 0.000000e+00 0.000000e+00 0.000000e+00 7.720427e+00 )
 );

 sigmaDisapp nonuniform List<scalar> 6 (2.770648e+00 9.500223e-01 4.505454e-01 8.153118e-01 1.362709e+00 3.756539e+00  );

 chiPrompt nonuniform List<scalar> 6 (3.999971e-01 4.901399e-01 1.084772e-01 1.239670e-03 1.388660e-04 7.247773e-06  );

 chiDelayed nonuniform List<scalar> 6 (2.817493e-03 3.826905e-01 5.922811e-01 2.000747e-02 2.084114e-03 1.194147e-04  );

 Beta nonuniform List<scalar> 6 (3.840229e-05 3.204708e-04 2.395533e-04 5.225471e-04 2.802611e-04 7.782030e-05  );

 lambda nonuniform List<scalar> 6 (1.338711e-02 3.053720e-02 1.133525e-01 2.974556e-01 8.488467e-01 2.754462e+00  );

 discFactor nonuniform List<scalar> 6 (1.000000e+00 1.000000e+00 1.000000e+00 1.000000e+00 1.000000e+00 1.000000e+00  );

 integralFlux nonuniform List<scalar> 6 (1.000000e+00 1.000000e+00 1.000000e+00 1.000000e+00 1.000000e+00 1.000000e+00  );

 }

pump 
{ 
 fuelFraction 1.000000e+00 ; 

 IV nonuniform List<scalar> 6 (4.049811e-08 7.520416e-08 2.080079e-07 5.778363e-07 1.179520e-06 3.283968e-06  );

 D nonuniform List<scalar> 6 (4.739342e-02 5.807554e-02 4.715150e-02 4.681505e-02 4.269494e-02 2.895132e-02  );

 nuSigmaEff nonuniform List<scalar> 6 (1.569087e+00 9.611975e-01 3.448235e-01 5.105045e-01 9.043864e-01 2.323125e+00  );

 sigmaPow nonuniform List<scalar> 6 (1.388707e-11 9.329269e-12 3.193437e-12 4.706478e-12 8.336679e-12 2.142357e-11  );

 scatteringMatrixP0 6 6 (
 (4.262767e+00 1.853378e+00 2.745138e-01 2.192772e-03 1.899822e-04 8.485272e-06 )
 (0.000000e+00 4.789632e+00 5.774292e-01 2.314278e-03 2.239785e-04 1.027292e-05 )
 (0.000000e+00 0.000000e+00 6.618790e+00 6.330077e-02 3.857168e-04 7.253211e-06 )
 (0.000000e+00 0.000000e+00 0.000000e+00 6.304730e+00 5.218775e-02 0.000000e+00 )
 (0.000000e+00 0.000000e+00 0.000000e+00 0.000000e+00 6.444435e+00 4.171884e-03 )
 (0.000000e+00 0.000000e+00 0.000000e+00 0.000000e+00 0.000000e+00 7.720427e+00 )
 );

 sigmaDisapp nonuniform List<scalar> 6 (2.770648e+00 9.500223e-01 4.505454e-01 8.153118e-01 1.362709e+00 3.756539e+00  );

 chiPrompt nonuniform List<scalar> 6 (3.999971e-01 4.901399e-01 1.084772e-01 1.239670e-03 1.388660e-04 7.247773e-06  );

 chiDelayed nonuniform List<scalar> 6 (2.817493e-03 3.826905e-01 5.922811e-01 2.000747e-02 2.084114e-03 1.194147e-04  );

 Beta nonuniform List<scalar> 6 (3.840229e-05 3.204708e-04 2.395533e-04 5.225471e-04 2.802611e-04 7.782030e-05  );

 lambda nonuniform List<scalar> 6 (1.338711e-02 3.053720e-02 1.133525e-01 2.974556e-01 8.488467e-01 2.754462e+00  );

 discFactor nonuniform List<scalar> 6 (1.000000e+00 1.000000e+00 1.000000e+00 1.000000e+00 1.000000e+00 1.000000e+00  );

 integralFlux nonuniform List<scalar> 6 (1.000000e+00 1.000000e+00 1.000000e+00 1.000000e+00 1.000000e+00 1.000000e+00  );

 }

); 
