
/*
 crossSection dictionary
 Generatd by serpentToFoamXS 
 25-Jul-2018
 From SERPENT results file: msfr_t_res
*/

/*
physical delayed neutron fraction and spectrum
*/

FoamFile
{
    version     2.0;
    format      ascii;
    class       dictionary;
    location    constant;
    object      msfr_t_res;
}

 energyGroups 6 ; 

 precGroups 6 ; 
 TfuelRef 9.00000e+02 ; 
 TfuelPerturbed 1.100000e+03 ; 
zones 
 ( 
hx 
{ 
 fuelFraction 1.000000e+00 ; 

 IV nonuniform List<scalar> 6 (4.049811e-08 7.520423e-08 2.080116e-07 5.778648e-07 1.179285e-06 3.281377e-06  );

 D nonuniform List<scalar> 6 (4.739373e-02 5.807458e-02 4.714326e-02 4.680376e-02 4.265538e-02 2.877119e-02  );

 nuSigmaEff nonuniform List<scalar> 6 (1.569096e+00 9.611998e-01 3.448257e-01 5.106442e-01 9.050882e-01 2.349273e+00  );

 sigmaPow nonuniform List<scalar> 6 (1.388713e-11 9.329296e-12 3.193457e-12 4.707776e-12 8.343281e-12 2.166355e-11  );

 scatteringMatrixP0 6 6 (
 (4.262735e+00 1.853271e+00 2.744835e-01 2.199514e-03 1.904036e-04 8.693593e-06 )
 (0.000000e+00 4.789725e+00 5.774597e-01 2.314543e-03 2.235114e-04 1.019781e-05 )
 (0.000000e+00 0.000000e+00 6.620098e+00 6.332143e-02 3.859111e-04 7.251527e-06 )
 (0.000000e+00 0.000000e+00 0.000000e+00 6.306267e+00 5.217538e-02 0.000000e+00 )
 (0.000000e+00 0.000000e+00 0.000000e+00 0.000000e+00 6.450546e+00 4.214897e-03 )
 (0.000000e+00 0.000000e+00 0.000000e+00 0.000000e+00 0.000000e+00 7.849003e+00 )
 );

 sigmaDisapp nonuniform List<scalar> 6 (2.770521e+00 9.500534e-01 4.505858e-01 8.155741e-01 1.364154e+00 3.774677e+00  );

 chiPrompt nonuniform List<scalar> 6 (3.999809e-01 4.901672e-01 1.084663e-01 1.239023e-03 1.391685e-04 7.452913e-06  );

 chiDelayed nonuniform List<scalar> 6 (2.869482e-03 3.822809e-01 5.925411e-01 2.004135e-02 2.144212e-03 1.229468e-04  );

 Beta nonuniform List<scalar> 6 (3.840227e-05 3.204709e-04 2.395522e-04 5.225445e-04 2.802594e-04 7.781988e-05  );

 lambda nonuniform List<scalar> 6 (1.338711e-02 3.053719e-02 1.133525e-01 2.974555e-01 8.488470e-01 2.754462e+00  );

 discFactor nonuniform List<scalar> 6 (1.000000e+00 1.000000e+00 1.000000e+00 1.000000e+00 1.000000e+00 1.000000e+00  );

 integralFlux nonuniform List<scalar> 6 (1.000000e+00 1.000000e+00 1.000000e+00 1.000000e+00 1.000000e+00 1.000000e+00  );

 }

intermed 
{ 
 fuelFraction 1.000000e+00 ; 

 IV nonuniform List<scalar> 6 (4.049811e-08 7.520423e-08 2.080116e-07 5.778648e-07 1.179285e-06 3.281377e-06  );

 D nonuniform List<scalar> 6 (4.739373e-02 5.807458e-02 4.714326e-02 4.680376e-02 4.265538e-02 2.877119e-02  );

 nuSigmaEff nonuniform List<scalar> 6 (1.569096e+00 9.611998e-01 3.448257e-01 5.106442e-01 9.050882e-01 2.349273e+00  );

 sigmaPow nonuniform List<scalar> 6 (1.388713e-11 9.329296e-12 3.193457e-12 4.707776e-12 8.343281e-12 2.166355e-11  );

 scatteringMatrixP0 6 6 (
 (4.262735e+00 1.853271e+00 2.744835e-01 2.199514e-03 1.904036e-04 8.693593e-06 )
 (0.000000e+00 4.789725e+00 5.774597e-01 2.314543e-03 2.235114e-04 1.019781e-05 )
 (0.000000e+00 0.000000e+00 6.620098e+00 6.332143e-02 3.859111e-04 7.251527e-06 )
 (0.000000e+00 0.000000e+00 0.000000e+00 6.306267e+00 5.217538e-02 0.000000e+00 )
 (0.000000e+00 0.000000e+00 0.000000e+00 0.000000e+00 6.450546e+00 4.214897e-03 )
 (0.000000e+00 0.000000e+00 0.000000e+00 0.000000e+00 0.000000e+00 7.849003e+00 )
 );

 sigmaDisapp nonuniform List<scalar> 6 (2.770521e+00 9.500534e-01 4.505858e-01 8.155741e-01 1.364154e+00 3.774677e+00  );

 chiPrompt nonuniform List<scalar> 6 (3.999809e-01 4.901672e-01 1.084663e-01 1.239023e-03 1.391685e-04 7.452913e-06  );

 chiDelayed nonuniform List<scalar> 6 (2.869482e-03 3.822809e-01 5.925411e-01 2.004135e-02 2.144212e-03 1.229468e-04  );

 Beta nonuniform List<scalar> 6 (3.840227e-05 3.204709e-04 2.395522e-04 5.225445e-04 2.802594e-04 7.781988e-05  );

 lambda nonuniform List<scalar> 6 (1.338711e-02 3.053719e-02 1.133525e-01 2.974555e-01 8.488470e-01 2.754462e+00  );

 discFactor nonuniform List<scalar> 6 (1.000000e+00 1.000000e+00 1.000000e+00 1.000000e+00 1.000000e+00 1.000000e+00  );

 integralFlux nonuniform List<scalar> 6 (1.000000e+00 1.000000e+00 1.000000e+00 1.000000e+00 1.000000e+00 1.000000e+00  );

 }

main_fd 
{ 
 fuelFraction 1.000000e+00 ; 

 IV nonuniform List<scalar> 6 (4.049811e-08 7.520423e-08 2.080116e-07 5.778648e-07 1.179285e-06 3.281377e-06  );

 D nonuniform List<scalar> 6 (4.739373e-02 5.807458e-02 4.714326e-02 4.680376e-02 4.265538e-02 2.877119e-02  );

 nuSigmaEff nonuniform List<scalar> 6 (1.569096e+00 9.611998e-01 3.448257e-01 5.106442e-01 9.050882e-01 2.349273e+00  );

 sigmaPow nonuniform List<scalar> 6 (1.388713e-11 9.329296e-12 3.193457e-12 4.707776e-12 8.343281e-12 2.166355e-11  );

 scatteringMatrixP0 6 6 (
 (4.262735e+00 1.853271e+00 2.744835e-01 2.199514e-03 1.904036e-04 8.693593e-06 )
 (0.000000e+00 4.789725e+00 5.774597e-01 2.314543e-03 2.235114e-04 1.019781e-05 )
 (0.000000e+00 0.000000e+00 6.620098e+00 6.332143e-02 3.859111e-04 7.251527e-06 )
 (0.000000e+00 0.000000e+00 0.000000e+00 6.306267e+00 5.217538e-02 0.000000e+00 )
 (0.000000e+00 0.000000e+00 0.000000e+00 0.000000e+00 6.450546e+00 4.214897e-03 )
 (0.000000e+00 0.000000e+00 0.000000e+00 0.000000e+00 0.000000e+00 7.849003e+00 )
 );

 sigmaDisapp nonuniform List<scalar> 6 (2.770521e+00 9.500534e-01 4.505858e-01 8.155741e-01 1.364154e+00 3.774677e+00  );

 chiPrompt nonuniform List<scalar> 6 (3.999809e-01 4.901672e-01 1.084663e-01 1.239023e-03 1.391685e-04 7.452913e-06  );

 chiDelayed nonuniform List<scalar> 6 (2.869482e-03 3.822809e-01 5.925411e-01 2.004135e-02 2.144212e-03 1.229468e-04  );

 Beta nonuniform List<scalar> 6 (3.840227e-05 3.204709e-04 2.395522e-04 5.225445e-04 2.802594e-04 7.781988e-05  );

 lambda nonuniform List<scalar> 6 (1.338711e-02 3.053719e-02 1.133525e-01 2.974555e-01 8.488470e-01 2.754462e+00  );

 discFactor nonuniform List<scalar> 6 (1.000000e+00 1.000000e+00 1.000000e+00 1.000000e+00 1.000000e+00 1.000000e+00  );

 integralFlux nonuniform List<scalar> 6 (1.000000e+00 1.000000e+00 1.000000e+00 1.000000e+00 1.000000e+00 1.000000e+00  );

 }

pump 
{ 
 fuelFraction 1.000000e+00 ; 

 IV nonuniform List<scalar> 6 (4.049811e-08 7.520423e-08 2.080116e-07 5.778648e-07 1.179285e-06 3.281377e-06  );

 D nonuniform List<scalar> 6 (4.739373e-02 5.807458e-02 4.714326e-02 4.680376e-02 4.265538e-02 2.877119e-02  );

 nuSigmaEff nonuniform List<scalar> 6 (1.569096e+00 9.611998e-01 3.448257e-01 5.106442e-01 9.050882e-01 2.349273e+00  );

 sigmaPow nonuniform List<scalar> 6 (1.388713e-11 9.329296e-12 3.193457e-12 4.707776e-12 8.343281e-12 2.166355e-11  );

 scatteringMatrixP0 6 6 (
 (4.262735e+00 1.853271e+00 2.744835e-01 2.199514e-03 1.904036e-04 8.693593e-06 )
 (0.000000e+00 4.789725e+00 5.774597e-01 2.314543e-03 2.235114e-04 1.019781e-05 )
 (0.000000e+00 0.000000e+00 6.620098e+00 6.332143e-02 3.859111e-04 7.251527e-06 )
 (0.000000e+00 0.000000e+00 0.000000e+00 6.306267e+00 5.217538e-02 0.000000e+00 )
 (0.000000e+00 0.000000e+00 0.000000e+00 0.000000e+00 6.450546e+00 4.214897e-03 )
 (0.000000e+00 0.000000e+00 0.000000e+00 0.000000e+00 0.000000e+00 7.849003e+00 )
 );

 sigmaDisapp nonuniform List<scalar> 6 (2.770521e+00 9.500534e-01 4.505858e-01 8.155741e-01 1.364154e+00 3.774677e+00  );

 chiPrompt nonuniform List<scalar> 6 (3.999809e-01 4.901672e-01 1.084663e-01 1.239023e-03 1.391685e-04 7.452913e-06  );

 chiDelayed nonuniform List<scalar> 6 (2.869482e-03 3.822809e-01 5.925411e-01 2.004135e-02 2.144212e-03 1.229468e-04  );

 Beta nonuniform List<scalar> 6 (3.840227e-05 3.204709e-04 2.395522e-04 5.225445e-04 2.802594e-04 7.781988e-05  );

 lambda nonuniform List<scalar> 6 (1.338711e-02 3.053719e-02 1.133525e-01 2.974555e-01 8.488470e-01 2.754462e+00  );

 discFactor nonuniform List<scalar> 6 (1.000000e+00 1.000000e+00 1.000000e+00 1.000000e+00 1.000000e+00 1.000000e+00  );

 integralFlux nonuniform List<scalar> 6 (1.000000e+00 1.000000e+00 1.000000e+00 1.000000e+00 1.000000e+00 1.000000e+00  );

 } 

 ); 
