
/*
 crossSection dictionary
 Generatd by serpentToFoamXS 
 25-Jul-2018
 From SERPENT results file: msfr_t_res
*/

/*
physical delayed neutron fraction and spectrum
*/

FoamFile
{
    version     2.0;
    format      ascii;
    class       dictionary;
    location    constant;
    object      msfr_t_res;
}

 energyGroups 6 ; 

 precGroups 6 ; 
 TfuelRef 9.000000e+02 ; 
 TfuelPerturbed 1.100000e+03 ; 
zones 
 ( 

hx 
{ 
 fuelFraction 1.000000e+00 ; 

 IV nonuniform List<scalar> 6 (3.987904e-08 7.507688e-08 2.658808e-07 6.540055e-07 1.438460e-06 3.498614e-06  );

 D nonuniform List<scalar> 6 (2.410540e-02 1.575413e-02 9.691052e-03 1.162911e-02 1.087817e-02 9.711037e-03  );

 nuSigmaEff nonuniform List<scalar> 6 (8.916224e-01 6.864882e-01 7.942611e-01 1.202495e+00 2.237963e+00 5.098265e+00  );

 sigmaPow nonuniform List<scalar> 6 (9.639171e-12 8.138291e-12 9.691284e-12 1.468497e-11 2.733158e-11 6.226550e-11  );

 scatteringMatrixP0 6 6 (
 (6.883085e+00 5.834752e+00 5.645469e-01 2.970127e-03 2.944133e-04 2.443079e-05 )
 (0.000000e+00 1.716886e+01 3.594346e+00 4.275946e-03 3.162298e-04 1.375407e-05 )
 (0.000000e+00 0.000000e+00 3.240583e+01 1.321944e+00 3.060651e-03 1.458783e-04 )
 (0.000000e+00 0.000000e+00 0.000000e+00 2.638271e+01 1.132466e+00 0.000000e+00 )
 (0.000000e+00 0.000000e+00 0.000000e+00 0.000000e+00 2.805115e+01 4.104951e-01 )
 (0.000000e+00 0.000000e+00 0.000000e+00 0.000000e+00 0.000000e+00 2.950769e+01 )
 );

 sigmaDisapp nonuniform List<scalar> 6 (6.945125e+00 3.989620e+00 1.990119e+00 2.280955e+00 2.591186e+00 4.817987e+00  );

 chiPrompt nonuniform List<scalar> 6 (3.640486e-01 5.129051e-01 1.214369e-01 1.438446e-03 1.624125e-04 8.466540e-06  );

 chiDelayed nonuniform List<scalar> 6 (3.269099e-03 3.878490e-01 5.838067e-01 2.246099e-02 2.483147e-03 1.310799e-04  );

 Beta nonuniform List<scalar> 6 (2.582978e-04 6.972802e-04 5.568856e-04 1.140471e-03 3.772643e-04 1.411464e-04  );

 lambda nonuniform List<scalar> 6 (1.289030e-02 3.466862e-02 1.194132e-01 2.900354e-01 8.411723e-01 2.581183e+00  );

 discFactor nonuniform List<scalar> 6 (1.000000e+00 1.000000e+00 1.000000e+00 1.000000e+00 1.000000e+00 1.000000e+00  );

 integralFlux nonuniform List<scalar> 6 (1.000000e+00 1.000000e+00 1.000000e+00 1.000000e+00 1.000000e+00 1.000000e+00  );

 }

intermed 
{ 
 fuelFraction 1.000000e+00 ; 

 IV nonuniform List<scalar> 6 (3.987904e-08 7.507688e-08 2.658808e-07 6.540055e-07 1.438460e-06 3.498614e-06  );

 D nonuniform List<scalar> 6 (2.410540e-02 1.575413e-02 9.691052e-03 1.162911e-02 1.087817e-02 9.711037e-03  );

 nuSigmaEff nonuniform List<scalar> 6 (8.916224e-01 6.864882e-01 7.942611e-01 1.202495e+00 2.237963e+00 5.098265e+00  );

 sigmaPow nonuniform List<scalar> 6 (9.639171e-12 8.138291e-12 9.691284e-12 1.468497e-11 2.733158e-11 6.226550e-11  );

 scatteringMatrixP0 6 6 (
 (6.883085e+00 5.834752e+00 5.645469e-01 2.970127e-03 2.944133e-04 2.443079e-05 )
 (0.000000e+00 1.716886e+01 3.594346e+00 4.275946e-03 3.162298e-04 1.375407e-05 )
 (0.000000e+00 0.000000e+00 3.240583e+01 1.321944e+00 3.060651e-03 1.458783e-04 )
 (0.000000e+00 0.000000e+00 0.000000e+00 2.638271e+01 1.132466e+00 0.000000e+00 )
 (0.000000e+00 0.000000e+00 0.000000e+00 0.000000e+00 2.805115e+01 4.104951e-01 )
 (0.000000e+00 0.000000e+00 0.000000e+00 0.000000e+00 0.000000e+00 2.950769e+01 )
 );

 sigmaDisapp nonuniform List<scalar> 6 (6.945125e+00 3.989620e+00 1.990119e+00 2.280955e+00 2.591186e+00 4.817987e+00  );

 chiPrompt nonuniform List<scalar> 6 (3.640486e-01 5.129051e-01 1.214369e-01 1.438446e-03 1.624125e-04 8.466540e-06  );

 chiDelayed nonuniform List<scalar> 6 (3.269099e-03 3.878490e-01 5.838067e-01 2.246099e-02 2.483147e-03 1.310799e-04  );

 Beta nonuniform List<scalar> 6 (2.582978e-04 6.972802e-04 5.568856e-04 1.140471e-03 3.772643e-04 1.411464e-04  );

 lambda nonuniform List<scalar> 6 (1.289030e-02 3.466862e-02 1.194132e-01 2.900354e-01 8.411723e-01 2.581183e+00  );

 discFactor nonuniform List<scalar> 6 (1.000000e+00 1.000000e+00 1.000000e+00 1.000000e+00 1.000000e+00 1.000000e+00  );

 integralFlux nonuniform List<scalar> 6 (1.000000e+00 1.000000e+00 1.000000e+00 1.000000e+00 1.000000e+00 1.000000e+00  );

 }

main_fd 
{ 
 fuelFraction 1.000000e+00 ; 

 IV nonuniform List<scalar> 6 (3.987904e-08 7.507688e-08 2.658808e-07 6.540055e-07 1.438460e-06 3.498614e-06  );

 D nonuniform List<scalar> 6 (2.410540e-02 1.575413e-02 9.691052e-03 1.162911e-02 1.087817e-02 9.711037e-03  );

 nuSigmaEff nonuniform List<scalar> 6 (8.916224e-01 6.864882e-01 7.942611e-01 1.202495e+00 2.237963e+00 5.098265e+00  );

 sigmaPow nonuniform List<scalar> 6 (9.639171e-12 8.138291e-12 9.691284e-12 1.468497e-11 2.733158e-11 6.226550e-11  );

 scatteringMatrixP0 6 6 (
 (6.883085e+00 5.834752e+00 5.645469e-01 2.970127e-03 2.944133e-04 2.443079e-05 )
 (0.000000e+00 1.716886e+01 3.594346e+00 4.275946e-03 3.162298e-04 1.375407e-05 )
 (0.000000e+00 0.000000e+00 3.240583e+01 1.321944e+00 3.060651e-03 1.458783e-04 )
 (0.000000e+00 0.000000e+00 0.000000e+00 2.638271e+01 1.132466e+00 0.000000e+00 )
 (0.000000e+00 0.000000e+00 0.000000e+00 0.000000e+00 2.805115e+01 4.104951e-01 )
 (0.000000e+00 0.000000e+00 0.000000e+00 0.000000e+00 0.000000e+00 2.950769e+01 )
 );

 sigmaDisapp nonuniform List<scalar> 6 (6.945125e+00 3.989620e+00 1.990119e+00 2.280955e+00 2.591186e+00 4.817987e+00  );

 chiPrompt nonuniform List<scalar> 6 (3.640486e-01 5.129051e-01 1.214369e-01 1.438446e-03 1.624125e-04 8.466540e-06  );

 chiDelayed nonuniform List<scalar> 6 (3.269099e-03 3.878490e-01 5.838067e-01 2.246099e-02 2.483147e-03 1.310799e-04  );

 Beta nonuniform List<scalar> 6 (2.582978e-04 6.972802e-04 5.568856e-04 1.140471e-03 3.772643e-04 1.411464e-04  );

 lambda nonuniform List<scalar> 6 (1.289030e-02 3.466862e-02 1.194132e-01 2.900354e-01 8.411723e-01 2.581183e+00  );

 discFactor nonuniform List<scalar> 6 (1.000000e+00 1.000000e+00 1.000000e+00 1.000000e+00 1.000000e+00 1.000000e+00  );

 integralFlux nonuniform List<scalar> 6 (1.000000e+00 1.000000e+00 1.000000e+00 1.000000e+00 1.000000e+00 1.000000e+00  );

 }

pump 
{ 
 fuelFraction 1.000000e+00 ; 

 IV nonuniform List<scalar> 6 (3.987904e-08 7.507688e-08 2.658808e-07 6.540055e-07 1.438460e-06 3.498614e-06  );

 D nonuniform List<scalar> 6 (2.410540e-02 1.575413e-02 9.691052e-03 1.162911e-02 1.087817e-02 9.711037e-03  );

 nuSigmaEff nonuniform List<scalar> 6 (8.916224e-01 6.864882e-01 7.942611e-01 1.202495e+00 2.237963e+00 5.098265e+00  );

 sigmaPow nonuniform List<scalar> 6 (9.639171e-12 8.138291e-12 9.691284e-12 1.468497e-11 2.733158e-11 6.226550e-11  );

 scatteringMatrixP0 6 6 (
 (6.883085e+00 5.834752e+00 5.645469e-01 2.970127e-03 2.944133e-04 2.443079e-05 )
 (0.000000e+00 1.716886e+01 3.594346e+00 4.275946e-03 3.162298e-04 1.375407e-05 )
 (0.000000e+00 0.000000e+00 3.240583e+01 1.321944e+00 3.060651e-03 1.458783e-04 )
 (0.000000e+00 0.000000e+00 0.000000e+00 2.638271e+01 1.132466e+00 0.000000e+00 )
 (0.000000e+00 0.000000e+00 0.000000e+00 0.000000e+00 2.805115e+01 4.104951e-01 )
 (0.000000e+00 0.000000e+00 0.000000e+00 0.000000e+00 0.000000e+00 2.950769e+01 )
 );

 sigmaDisapp nonuniform List<scalar> 6 (6.945125e+00 3.989620e+00 1.990119e+00 2.280955e+00 2.591186e+00 4.817987e+00  );

 chiPrompt nonuniform List<scalar> 6 (3.640486e-01 5.129051e-01 1.214369e-01 1.438446e-03 1.624125e-04 8.466540e-06  );

 chiDelayed nonuniform List<scalar> 6 (3.269099e-03 3.878490e-01 5.838067e-01 2.246099e-02 2.483147e-03 1.310799e-04  );

 Beta nonuniform List<scalar> 6 (2.582978e-04 6.972802e-04 5.568856e-04 1.140471e-03 3.772643e-04 1.411464e-04  );

 lambda nonuniform List<scalar> 6 (1.289030e-02 3.466862e-02 1.194132e-01 2.900354e-01 8.411723e-01 2.581183e+00  );

 discFactor nonuniform List<scalar> 6 (1.000000e+00 1.000000e+00 1.000000e+00 1.000000e+00 1.000000e+00 1.000000e+00  );

 integralFlux nonuniform List<scalar> 6 (1.000000e+00 1.000000e+00 1.000000e+00 1.000000e+00 1.000000e+00 1.000000e+00  );

 }

); 
