
/*
 crossSection dictionary
 Generatd by serpentToFoamXS 
 25-Jul-2018
 From SERPENT results file: msfr_c_res
*/

/*
physical delayed neutron fraction and spectrum
*/

FoamFile
{
    version     2.0;
    format      ascii;
    class       dictionary;
    location    constant;
    object      msfr_c_res;
}

 energyGroups 6 ; 

 precGroups 6 ; 
 rhoCoolRef 4.1893e+03 ; 
 rhoCoolPerturbed 3.47225e+03 ; 
zones 
 ( 

hx 
{ 
 fuelFraction 1.000000e+00 ; 

 IV nonuniform List<scalar> 6 (3.987980e-08 7.507639e-08 2.658805e-07 6.540575e-07 1.440763e-06 3.518861e-06  );

 D nonuniform List<scalar> 6 (2.908365e-02 1.900786e-02 1.169281e-02 1.403961e-02 1.318706e-02 1.187057e-02  );

 nuSigmaEff nonuniform List<scalar> 6 (7.390015e-01 5.689958e-01 6.583180e-01 9.966316e-01 1.856602e+00 4.246082e+00  );

 sigmaPow nonuniform List<scalar> 6 (7.989302e-12 6.745422e-12 8.032556e-12 1.217094e-11 2.267413e-11 5.185784e-11  );

 scatteringMatrixP0 6 6 (
 (5.704537e+00 4.836649e+00 4.679393e-01 2.470857e-03 2.418801e-04 2.001347e-05 )
 (0.000000e+00 1.422978e+01 2.979149e+00 3.549629e-03 2.613799e-04 1.137255e-05 )
 (0.000000e+00 0.000000e+00 2.685799e+01 1.095747e+00 2.533957e-03 1.200278e-04 )
 (0.000000e+00 0.000000e+00 0.000000e+00 2.185238e+01 9.391659e-01 0.000000e+00 )
 (0.000000e+00 0.000000e+00 0.000000e+00 0.000000e+00 2.314099e+01 3.455157e-01 )
 (0.000000e+00 0.000000e+00 0.000000e+00 0.000000e+00 0.000000e+00 2.418652e+01 )
 );

 sigmaDisapp nonuniform List<scalar> 6 (5.756955e+00 3.306775e+00 1.649496e+00 1.890012e+00 2.136239e+00 3.893524e+00  );

 chiPrompt nonuniform List<scalar> 6 (3.640248e-01 5.129282e-01 1.214383e-01 1.438803e-03 1.615482e-04 8.273589e-06  );

 chiDelayed nonuniform List<scalar> 6 (3.232814e-03 3.877970e-01 5.838630e-01 2.253550e-02 2.450138e-03 1.215850e-04  );

 Beta nonuniform List<scalar> 6 (2.582800e-04 6.972002e-04 5.567637e-04 1.140065e-03 3.771061e-04 1.410655e-04  );

 lambda nonuniform List<scalar> 6 (1.289038e-02 3.466889e-02 1.194127e-01 2.900214e-01 8.409820e-01 2.580708e+00  );

 discFactor nonuniform List<scalar> 6 (1.000000e+00 1.000000e+00 1.000000e+00 1.000000e+00 1.000000e+00 1.000000e+00  );

 integralFlux nonuniform List<scalar> 6 (1.000000e+00 1.000000e+00 1.000000e+00 1.000000e+00 1.000000e+00 1.000000e+00  );

 }

intermed 
{ 
 fuelFraction 1.000000e+00 ; 

 IV nonuniform List<scalar> 6 (3.987980e-08 7.507639e-08 2.658805e-07 6.540575e-07 1.440763e-06 3.518861e-06  );

 D nonuniform List<scalar> 6 (2.908365e-02 1.900786e-02 1.169281e-02 1.403961e-02 1.318706e-02 1.187057e-02  );

 nuSigmaEff nonuniform List<scalar> 6 (7.390015e-01 5.689958e-01 6.583180e-01 9.966316e-01 1.856602e+00 4.246082e+00  );

 sigmaPow nonuniform List<scalar> 6 (7.989302e-12 6.745422e-12 8.032556e-12 1.217094e-11 2.267413e-11 5.185784e-11  );

 scatteringMatrixP0 6 6 (
 (5.704537e+00 4.836649e+00 4.679393e-01 2.470857e-03 2.418801e-04 2.001347e-05 )
 (0.000000e+00 1.422978e+01 2.979149e+00 3.549629e-03 2.613799e-04 1.137255e-05 )
 (0.000000e+00 0.000000e+00 2.685799e+01 1.095747e+00 2.533957e-03 1.200278e-04 )
 (0.000000e+00 0.000000e+00 0.000000e+00 2.185238e+01 9.391659e-01 0.000000e+00 )
 (0.000000e+00 0.000000e+00 0.000000e+00 0.000000e+00 2.314099e+01 3.455157e-01 )
 (0.000000e+00 0.000000e+00 0.000000e+00 0.000000e+00 0.000000e+00 2.418652e+01 )
 );

 sigmaDisapp nonuniform List<scalar> 6 (5.756955e+00 3.306775e+00 1.649496e+00 1.890012e+00 2.136239e+00 3.893524e+00  );

 chiPrompt nonuniform List<scalar> 6 (3.640248e-01 5.129282e-01 1.214383e-01 1.438803e-03 1.615482e-04 8.273589e-06  );

 chiDelayed nonuniform List<scalar> 6 (3.232814e-03 3.877970e-01 5.838630e-01 2.253550e-02 2.450138e-03 1.215850e-04  );

 Beta nonuniform List<scalar> 6 (2.582800e-04 6.972002e-04 5.567637e-04 1.140065e-03 3.771061e-04 1.410655e-04  );

 lambda nonuniform List<scalar> 6 (1.289038e-02 3.466889e-02 1.194127e-01 2.900214e-01 8.409820e-01 2.580708e+00  );

 discFactor nonuniform List<scalar> 6 (1.000000e+00 1.000000e+00 1.000000e+00 1.000000e+00 1.000000e+00 1.000000e+00  );

 integralFlux nonuniform List<scalar> 6 (1.000000e+00 1.000000e+00 1.000000e+00 1.000000e+00 1.000000e+00 1.000000e+00  );

 }

main_fd 
{ 
 fuelFraction 1.000000e+00 ; 

 IV nonuniform List<scalar> 6 (3.987980e-08 7.507639e-08 2.658805e-07 6.540575e-07 1.440763e-06 3.518861e-06  );

 D nonuniform List<scalar> 6 (2.908365e-02 1.900786e-02 1.169281e-02 1.403961e-02 1.318706e-02 1.187057e-02  );

 nuSigmaEff nonuniform List<scalar> 6 (7.390015e-01 5.689958e-01 6.583180e-01 9.966316e-01 1.856602e+00 4.246082e+00  );

 sigmaPow nonuniform List<scalar> 6 (7.989302e-12 6.745422e-12 8.032556e-12 1.217094e-11 2.267413e-11 5.185784e-11  );

 scatteringMatrixP0 6 6 (
 (5.704537e+00 4.836649e+00 4.679393e-01 2.470857e-03 2.418801e-04 2.001347e-05 )
 (0.000000e+00 1.422978e+01 2.979149e+00 3.549629e-03 2.613799e-04 1.137255e-05 )
 (0.000000e+00 0.000000e+00 2.685799e+01 1.095747e+00 2.533957e-03 1.200278e-04 )
 (0.000000e+00 0.000000e+00 0.000000e+00 2.185238e+01 9.391659e-01 0.000000e+00 )
 (0.000000e+00 0.000000e+00 0.000000e+00 0.000000e+00 2.314099e+01 3.455157e-01 )
 (0.000000e+00 0.000000e+00 0.000000e+00 0.000000e+00 0.000000e+00 2.418652e+01 )
 );

 sigmaDisapp nonuniform List<scalar> 6 (5.756955e+00 3.306775e+00 1.649496e+00 1.890012e+00 2.136239e+00 3.893524e+00  );

 chiPrompt nonuniform List<scalar> 6 (3.640248e-01 5.129282e-01 1.214383e-01 1.438803e-03 1.615482e-04 8.273589e-06  );

 chiDelayed nonuniform List<scalar> 6 (3.232814e-03 3.877970e-01 5.838630e-01 2.253550e-02 2.450138e-03 1.215850e-04  );

 Beta nonuniform List<scalar> 6 (2.582800e-04 6.972002e-04 5.567637e-04 1.140065e-03 3.771061e-04 1.410655e-04  );

 lambda nonuniform List<scalar> 6 (1.289038e-02 3.466889e-02 1.194127e-01 2.900214e-01 8.409820e-01 2.580708e+00  );

 discFactor nonuniform List<scalar> 6 (1.000000e+00 1.000000e+00 1.000000e+00 1.000000e+00 1.000000e+00 1.000000e+00  );

 integralFlux nonuniform List<scalar> 6 (1.000000e+00 1.000000e+00 1.000000e+00 1.000000e+00 1.000000e+00 1.000000e+00  );

 }

pump 
{ 
 fuelFraction 1.000000e+00 ; 

 IV nonuniform List<scalar> 6 (3.987980e-08 7.507639e-08 2.658805e-07 6.540575e-07 1.440763e-06 3.518861e-06  );

 D nonuniform List<scalar> 6 (2.908365e-02 1.900786e-02 1.169281e-02 1.403961e-02 1.318706e-02 1.187057e-02  );

 nuSigmaEff nonuniform List<scalar> 6 (7.390015e-01 5.689958e-01 6.583180e-01 9.966316e-01 1.856602e+00 4.246082e+00  );

 sigmaPow nonuniform List<scalar> 6 (7.989302e-12 6.745422e-12 8.032556e-12 1.217094e-11 2.267413e-11 5.185784e-11  );

 scatteringMatrixP0 6 6 (
 (5.704537e+00 4.836649e+00 4.679393e-01 2.470857e-03 2.418801e-04 2.001347e-05 )
 (0.000000e+00 1.422978e+01 2.979149e+00 3.549629e-03 2.613799e-04 1.137255e-05 )
 (0.000000e+00 0.000000e+00 2.685799e+01 1.095747e+00 2.533957e-03 1.200278e-04 )
 (0.000000e+00 0.000000e+00 0.000000e+00 2.185238e+01 9.391659e-01 0.000000e+00 )
 (0.000000e+00 0.000000e+00 0.000000e+00 0.000000e+00 2.314099e+01 3.455157e-01 )
 (0.000000e+00 0.000000e+00 0.000000e+00 0.000000e+00 0.000000e+00 2.418652e+01 )
 );

 sigmaDisapp nonuniform List<scalar> 6 (5.756955e+00 3.306775e+00 1.649496e+00 1.890012e+00 2.136239e+00 3.893524e+00  );

 chiPrompt nonuniform List<scalar> 6 (3.640248e-01 5.129282e-01 1.214383e-01 1.438803e-03 1.615482e-04 8.273589e-06  );

 chiDelayed nonuniform List<scalar> 6 (3.232814e-03 3.877970e-01 5.838630e-01 2.253550e-02 2.450138e-03 1.215850e-04  );

 Beta nonuniform List<scalar> 6 (2.582800e-04 6.972002e-04 5.567637e-04 1.140065e-03 3.771061e-04 1.410655e-04  );

 lambda nonuniform List<scalar> 6 (1.289038e-02 3.466889e-02 1.194127e-01 2.900214e-01 8.409820e-01 2.580708e+00  );

 discFactor nonuniform List<scalar> 6 (1.000000e+00 1.000000e+00 1.000000e+00 1.000000e+00 1.000000e+00 1.000000e+00  );

 integralFlux nonuniform List<scalar> 6 (1.000000e+00 1.000000e+00 1.000000e+00 1.000000e+00 1.000000e+00 1.000000e+00  );

 }

); 
