/*--------------------------------*- C++ -*----------------------------------*\
| =========                 |                                                 |
| \\      /  F ield         | OpenFOAM: The Open Source CFD Toolbox           |
|  \\    /   O peration     | Version:  v1906                                 |
|   \\  /    A nd           | Web:      www.OpenFOAM.com                      |
|    \\/     M anipulation  |                                                 |
\*---------------------------------------------------------------------------*/
FoamFile
{
    version     2.0;
    format      ascii;
    class       dictionary;
    location    "constant/neutroRegion";
    object      reactorState;
}
// * * * * * * * * * * * * * * * * * * * * * * * * * * * * * * * * * * * * * //

keff            0.930537;

pTarget         2e+07;


// ************************************************************************* //
