/*--------------------------------*- C++ -*----------------------------------*\
  =========                 |
  \\      /  F ield         | OpenFOAM: The Open Source CFD Toolbox
   \\    /   O peration     | Website:  https://openfoam.org
    \\  /    A nd           | Version:  6
     \\/     M anipulation  |
\*---------------------------------------------------------------------------*/
FoamFile
{
    version     2.0;
    format      ascii;
    class       polyBoundaryMesh;
    location    "constant/polyMesh";
    object      boundary;
}
// * * * * * * * * * * * * * * * * * * * * * * * * * * * * * * * * * * * * * //

6
(
    front
    {
        type            wedge;
        inGroups        1(wedge);
        nFaces          8595;
        startFace       16957;
    }
    back
    {
        type            wedge;
        inGroups        1(wedge);
        nFaces          8595;
        startFace       25552;
    }
    bottomwall
    {
        type            patch;
        nFaces          30;
        startFace       34147;
    }
    topwall
    {
        type            patch;
        nFaces          30;
        startFace       34177;
    }
    reflector
    {
        type            patch;
        nFaces          95;
        startFace       34207;
    }
    hx
    {
        type            patch;
        nFaces          276;
        startFace       34302;
    }
)

// ************************************************************************* //
