/*--------------------------------*- C++ -*----------------------------------*\
| =========                 |                                                 |
| \\      /  F ield         | OpenFOAM: The Open Source CFD Toolbox           |
|  \\    /   O peration     | Version:  2.2.1                                 |
|   \\  /    A nd           | Web:      www.OpenFOAM.org                      |
|    \\/     M anipulation  |                                                 |
\*---------------------------------------------------------------------------*/
FoamFile
{
    version     2.0;
    format      ascii;
    class       dictionary;
    object      turbulenceProperties;
}
// * * * * * * * * * * * * * * * * * * * * * * * * * * * * * * * * * * * * * //

simulationType RAS;	// laminar;//

RAS
{
    RASModel        porousKEpsilon;//laminar;//kEpsilon;//;

    turbulence      true;

    printCoeffs     true;
}

porousKEpsilonProperties
{
	"hx"
	{
		convergenceLength           0.5;
        turbulenceIntensityCoeff    0.16;
        turbulenceIntensityExp      -0.125;
        turbulenceLengthScaleCoeff  0.07;
	}
}


// ************************************************************************* //
