/*--------------------------------*- C++ -*----------------------------------*\
| =========                 |                                                 |
| \\      /  F ield         | OpenFOAM: The Open Source CFD Toolbox           |
|  \\    /   O peration     | Version:  5.x                                   |
|   \\  /    A nd           | Web:      www.OpenFOAM.org                      |
|    \\/     M anipulation  |                                                 |
\*---------------------------------------------------------------------------*/
FoamFile
{
    version     2.0;
    format      ascii;
    class       volVectorField;
    location    "20000";
    object      U;
}
// * * * * * * * * * * * * * * * * * * * * * * * * * * * * * * * * * * * * * //

dimensions      [0 1 -1 0 0 0 0];

internalField   uniform (0 0 0);

boundaryField
{
    front
    {
        type            wedge;
    }
    back
    {
        type            wedge;
    }
    topwall
    {
        type fixedValue;
        value uniform (0 0 0);
    }
    bottomwall
    {
        type fixedValue;
        value uniform (0 0 0);
    }
    reflector
    {
        type fixedValue;
        value uniform (0 0 0);
    }
    hx
    {
        type fixedValue;
        value uniform (0 0 0);
    }
}


// ************************************************************************* //
