/*--------------------------------*- C++ -*----------------------------------*\
| =========                 |                                                 |
| \\      /  F ield         | OpenFOAM: The Open Source CFD Toolbox           |
|  \\    /   O peration     | Version:  5.x                                   |
|   \\  /    A nd           | Web:      www.OpenFOAM.org                      |
|    \\/     M anipulation  |                                                 |
\*---------------------------------------------------------------------------*/
FoamFile
{
    version     2.0;
    format      ascii;
    class       volScalarField;
    location    "20000";
    object      p_rgh;
}
// * * * * * * * * * * * * * * * * * * * * * * * * * * * * * * * * * * * * * //


dimensions      [1 -1 -2 0 0 0 0];

internalField   uniform 0;

boundaryField
{
    front
    {
        type            wedge;
    }
    back
    {
        type            wedge;
    }
    topwall
    {
        type            fixedFluxPressure;
        value           $internalField;
    }
    bottomwall
    {
        type            fixedFluxPressure;
        value           $internalField;
    }
    reflector
    {
        type            fixedFluxPressure;
        value           $internalField;
    }
    hx
    {
        type            fixedFluxPressure;
        value           $internalField;
    }
}

// ************************************************************************* //
