/*--------------------------------*- C++ -*----------------------------------*\
| =========                 |                                                 |
| \\      /  F ield         | OpenFOAM: The Open Source CFD Toolbox           |
|  \\    /   O peration     | Version:  5.0                                   |
|   \\  /    A nd           | Web:      www.OpenFOAM.org                      |
|    \\/     M anipulation  |                                                 |
\*---------------------------------------------------------------------------*/
FoamFile
{
    version     2.0;
    format      ascii;
    class       volScalarField;
    location    "0/fluidRegion";
    object      alphat;
}
// * * * * * * * * * * * * * * * * * * * * * * * * * * * * * * * * * * * * * //

dimensions      [1 -1 -1 0 0 0 0];

internalField   uniform 0;

boundaryField
{
    front
    {
        type            wedge;
    }
    back
    {
        type            wedge;
    }
    topwall
    {
        type            zeroGradient;//alphatJayatillekeWallFunction;
	value           uniform 0.1;
	Prt             0.85;
    }
    bottomwall
    {
        type            zeroGradient;//alphatJayatillekeWallFunction;
	value           uniform 0.1;
	Prt             0.85;
    }
    reflector
    {
        type            zeroGradient;//alphatJayatillekeWallFunction;
	value           uniform 0.1;
	Prt             0.85;
    }
    hx
    {
        type            zeroGradient;//alphatJayatillekeWallFunction;
	value           uniform 0.1;
	Prt             0.85;
    }
}


// ************************************************************************* //
