/*
 crossSection dictionary
 Generatd by OpenMC2FoamXS 
 29/06/2023 11:45:49
 OpenMC results file: results

effective delayed neutron fraction, prompt neutron spectrum
*/

FoamFile
{
    version     2.0;
    format      ascii;
    class       dictionary;
    location    constant;
    object      results;
}

fastNeutrons          true;

adjustDiscFactors     false;

useGivenDiscFactors   false;

promptGenerationTime 1.6551e-07;

Beta (8.537971e-05 7.259117e-04 4.943259e-04 1.059600e-03 5.787385e-04 1.881698e-04  );

lambda (1.338245e-02 3.044481e-02 1.150333e-01 3.000982e-01 8.619295e-01 2.896206e+00  );

feedbackCoeffFastDoppler 2.6087e-04;

feedbackCoeffTFuel 0;

feedbackCoeffTClad 0;

feedbackCoeffTCool 0;

feedbackCoeffRhoCool 2.53666e-05;

feedbackCoeffTStruct 0;

absoluteDrivelineExpansionCoeff 0;

controlRodReactivityMap ( ( 0.1 -0.01 ) ( 0 0 ) ( -0.1 0.01 ) ); 

initPrecursorsLiquidFuel true;


 energyGroups 6 ;

 precGroups 6 ;

zones 
 ( 

hx 
{ 
 fuelFraction 1.000000e+00 ; 

 IV nonuniform List<scalar> 6 (3.965045e-08 7.378951e-08 2.572103e-07 6.511547e-07 1.416114e-06 3.314371e-06  );

 D nonuniform List<scalar> 6 (2.852882e-02 1.864276e-02 1.102293e-02 1.293418e-02 1.182868e-02 9.829631e-03  );

 nuSigmaEff nonuniform List<scalar> 6 (2.747777e+00 2.162248e+00 1.389086e+00 1.789061e+00 3.307372e+00 7.917947e+00  );

 sigmaPow nonuniform List<scalar> 6 (2.578485e-11 2.279350e-11 1.525683e-11 1.968517e-11 3.639149e-11 8.742783e-11  );

 scatteringMatrixP0 6 6 (
 (5.697196e+00 4.579917e+00 3.607408e-01 4.409811e-03 3.318463e-04 1.944380e-05 )
 (0.000000e+00 1.416510e+01 2.918282e+00 3.464502e-03 2.929417e-04 1.286445e-05 )
 (0.000000e+00 0.000000e+00 2.817932e+01 1.253612e+00 2.074943e-03 1.257281e-04 )
 (0.000000e+00 0.000000e+00 0.000000e+00 2.317800e+01 1.253645e+00 9.106093e-04 )
 (0.000000e+00 0.000000e+00 0.000000e+00 0.000000e+00 2.508841e+01 3.929079e-01 )
 (0.000000e+00 0.000000e+00 0.000000e+00 0.000000e+00 0.000000e+00 2.728710e+01 )
 );

 sigmaDisapp nonuniform List<scalar> 6 (5.987003e+00 3.714870e+00 2.060829e+00 2.593468e+00 3.091741e+00 6.622821e+00  );

 chiPrompt nonuniform List<scalar> 6 (3.681932e-01 5.107741e-01 1.194884e-01 1.380867e-03 1.553682e-04 8.032066e-06  );

 chiDelayed nonuniform List<scalar> 6 (3.416508e-03 3.934763e-01 5.809813e-01 1.991296e-02 2.103249e-03 1.096608e-04  );

 Beta nonuniform List<scalar> 6 (8.537971e-05 7.259117e-04 4.943259e-04 1.059600e-03 5.787385e-04 1.881698e-04  );

 lambda nonuniform List<scalar> 6 (1.338245e-02 3.044481e-02 1.150333e-01 3.000982e-01 8.619295e-01 2.896206e+00  );

 discFactor nonuniform List<scalar> 6 (1.000000e+00 1.000000e+00 1.000000e+00 1.000000e+00 1.000000e+00 1.000000e+00  );

 integralFlux nonuniform List<scalar> 6 (1.000000e+00 1.000000e+00 1.000000e+00 1.000000e+00 1.000000e+00 1.000000e+00  );

 }

intermed 
{ 
 fuelFraction 1.000000e+00 ; 

 IV nonuniform List<scalar> 6 (3.965045e-08 7.378951e-08 2.572103e-07 6.511547e-07 1.416114e-06 3.314371e-06  );

 D nonuniform List<scalar> 6 (2.852882e-02 1.864276e-02 1.102293e-02 1.293418e-02 1.182868e-02 9.829631e-03  );

 nuSigmaEff nonuniform List<scalar> 6 (2.747777e+00 2.162248e+00 1.389086e+00 1.789061e+00 3.307372e+00 7.917947e+00  );

 sigmaPow nonuniform List<scalar> 6 (2.578485e-11 2.279350e-11 1.525683e-11 1.968517e-11 3.639149e-11 8.742783e-11  );

 scatteringMatrixP0 6 6 (
 (5.697196e+00 4.579917e+00 3.607408e-01 4.409811e-03 3.318463e-04 1.944380e-05 )
 (0.000000e+00 1.416510e+01 2.918282e+00 3.464502e-03 2.929417e-04 1.286445e-05 )
 (0.000000e+00 0.000000e+00 2.817932e+01 1.253612e+00 2.074943e-03 1.257281e-04 )
 (0.000000e+00 0.000000e+00 0.000000e+00 2.317800e+01 1.253645e+00 9.106093e-04 )
 (0.000000e+00 0.000000e+00 0.000000e+00 0.000000e+00 2.508841e+01 3.929079e-01 )
 (0.000000e+00 0.000000e+00 0.000000e+00 0.000000e+00 0.000000e+00 2.728710e+01 )
 );

 sigmaDisapp nonuniform List<scalar> 6 (5.987003e+00 3.714870e+00 2.060829e+00 2.593468e+00 3.091741e+00 6.622821e+00  );

 chiPrompt nonuniform List<scalar> 6 (3.681932e-01 5.107741e-01 1.194884e-01 1.380867e-03 1.553682e-04 8.032066e-06  );

 chiDelayed nonuniform List<scalar> 6 (3.416508e-03 3.934763e-01 5.809813e-01 1.991296e-02 2.103249e-03 1.096608e-04  );

 Beta nonuniform List<scalar> 6 (8.537971e-05 7.259117e-04 4.943259e-04 1.059600e-03 5.787385e-04 1.881698e-04  );

 lambda nonuniform List<scalar> 6 (1.338245e-02 3.044481e-02 1.150333e-01 3.000982e-01 8.619295e-01 2.896206e+00  );

 discFactor nonuniform List<scalar> 6 (1.000000e+00 1.000000e+00 1.000000e+00 1.000000e+00 1.000000e+00 1.000000e+00  );

 integralFlux nonuniform List<scalar> 6 (1.000000e+00 1.000000e+00 1.000000e+00 1.000000e+00 1.000000e+00 1.000000e+00  );

 }

main_fd 
{ 
 fuelFraction 1.000000e+00 ; 

 IV nonuniform List<scalar> 6 (3.965045e-08 7.378951e-08 2.572103e-07 6.511547e-07 1.416114e-06 3.314371e-06  );

 D nonuniform List<scalar> 6 (2.852882e-02 1.864276e-02 1.102293e-02 1.293418e-02 1.182868e-02 9.829631e-03  );

 nuSigmaEff nonuniform List<scalar> 6 (2.747777e+00 2.162248e+00 1.389086e+00 1.789061e+00 3.307372e+00 7.917947e+00  );

 sigmaPow nonuniform List<scalar> 6 (2.578485e-11 2.279350e-11 1.525683e-11 1.968517e-11 3.639149e-11 8.742783e-11  );

 scatteringMatrixP0 6 6 (
 (5.697196e+00 4.579917e+00 3.607408e-01 4.409811e-03 3.318463e-04 1.944380e-05 )
 (0.000000e+00 1.416510e+01 2.918282e+00 3.464502e-03 2.929417e-04 1.286445e-05 )
 (0.000000e+00 0.000000e+00 2.817932e+01 1.253612e+00 2.074943e-03 1.257281e-04 )
 (0.000000e+00 0.000000e+00 0.000000e+00 2.317800e+01 1.253645e+00 9.106093e-04 )
 (0.000000e+00 0.000000e+00 0.000000e+00 0.000000e+00 2.508841e+01 3.929079e-01 )
 (0.000000e+00 0.000000e+00 0.000000e+00 0.000000e+00 0.000000e+00 2.728710e+01 )
 );

 sigmaDisapp nonuniform List<scalar> 6 (5.987003e+00 3.714870e+00 2.060829e+00 2.593468e+00 3.091741e+00 6.622821e+00  );

 chiPrompt nonuniform List<scalar> 6 (3.681932e-01 5.107741e-01 1.194884e-01 1.380867e-03 1.553682e-04 8.032066e-06  );

 chiDelayed nonuniform List<scalar> 6 (3.416508e-03 3.934763e-01 5.809813e-01 1.991296e-02 2.103249e-03 1.096608e-04  );

 Beta nonuniform List<scalar> 6 (8.537971e-05 7.259117e-04 4.943259e-04 1.059600e-03 5.787385e-04 1.881698e-04  );

 lambda nonuniform List<scalar> 6 (1.338245e-02 3.044481e-02 1.150333e-01 3.000982e-01 8.619295e-01 2.896206e+00  );

 discFactor nonuniform List<scalar> 6 (1.000000e+00 1.000000e+00 1.000000e+00 1.000000e+00 1.000000e+00 1.000000e+00  );

 integralFlux nonuniform List<scalar> 6 (1.000000e+00 1.000000e+00 1.000000e+00 1.000000e+00 1.000000e+00 1.000000e+00  );

 }

pump 
{ 
 fuelFraction 1.000000e+00 ; 

 IV nonuniform List<scalar> 6 (3.965045e-08 7.378951e-08 2.572103e-07 6.511547e-07 1.416114e-06 3.314371e-06  );

 D nonuniform List<scalar> 6 (2.852882e-02 1.864276e-02 1.102293e-02 1.293418e-02 1.182868e-02 9.829631e-03  );

 nuSigmaEff nonuniform List<scalar> 6 (2.747777e+00 2.162248e+00 1.389086e+00 1.789061e+00 3.307372e+00 7.917947e+00  );

 sigmaPow nonuniform List<scalar> 6 (2.578485e-11 2.279350e-11 1.525683e-11 1.968517e-11 3.639149e-11 8.742783e-11  );

 scatteringMatrixP0 6 6 (
 (5.697196e+00 4.579917e+00 3.607408e-01 4.409811e-03 3.318463e-04 1.944380e-05 )
 (0.000000e+00 1.416510e+01 2.918282e+00 3.464502e-03 2.929417e-04 1.286445e-05 )
 (0.000000e+00 0.000000e+00 2.817932e+01 1.253612e+00 2.074943e-03 1.257281e-04 )
 (0.000000e+00 0.000000e+00 0.000000e+00 2.317800e+01 1.253645e+00 9.106093e-04 )
 (0.000000e+00 0.000000e+00 0.000000e+00 0.000000e+00 2.508841e+01 3.929079e-01 )
 (0.000000e+00 0.000000e+00 0.000000e+00 0.000000e+00 0.000000e+00 2.728710e+01 )
 );

 sigmaDisapp nonuniform List<scalar> 6 (5.987003e+00 3.714870e+00 2.060829e+00 2.593468e+00 3.091741e+00 6.622821e+00  );

 chiPrompt nonuniform List<scalar> 6 (3.681932e-01 5.107741e-01 1.194884e-01 1.380867e-03 1.553682e-04 8.032066e-06  );

 chiDelayed nonuniform List<scalar> 6 (3.416508e-03 3.934763e-01 5.809813e-01 1.991296e-02 2.103249e-03 1.096608e-04  );

 Beta nonuniform List<scalar> 6 (8.537971e-05 7.259117e-04 4.943259e-04 1.059600e-03 5.787385e-04 1.881698e-04  );

 lambda nonuniform List<scalar> 6 (1.338245e-02 3.044481e-02 1.150333e-01 3.000982e-01 8.619295e-01 2.896206e+00  );

 discFactor nonuniform List<scalar> 6 (1.000000e+00 1.000000e+00 1.000000e+00 1.000000e+00 1.000000e+00 1.000000e+00  );

 integralFlux nonuniform List<scalar> 6 (1.000000e+00 1.000000e+00 1.000000e+00 1.000000e+00 1.000000e+00 1.000000e+00  );

 }

); 
