
/*
 crossSection dictionary
 Generatd by serpentToFoamXS 
 25-Jul-2018
 From SERPENT results file: msfr_c_res
*/

/*
physical delayed neutron fraction and spectrum
*/

FoamFile
{
    version     2.0;
    format      ascii;
    class       dictionary;
    location    constant;
    object      msfr_c_res;
}

 energyGroups 6 ; 

 precGroups 6 ; 
 rhoCoolRef 3.322e+03 ; 
 rhoCoolPerturbed 2.75343e+03 ; 
zones 
 ( 

hx 
{ 
 fuelFraction 1.000000e+00 ; 

 IV nonuniform List<scalar> 6 (3.965039e-08 7.379007e-08 2.572089e-07 6.511596e-07 1.416132e-06 3.314330e-06  );

 D nonuniform List<scalar> 6 (3.442014e-02 2.249197e-02 1.329913e-02 1.560516e-02 1.427194e-02 1.186253e-02  );

 nuSigmaEff nonuniform List<scalar> 6 (2.277484e+00 1.792158e+00 1.151339e+00 1.482858e+00 2.741234e+00 6.562979e+00  );

 sigmaPow nonuniform List<scalar> 6 (2.137163e-11 1.889217e-11 1.264557e-11 1.631599e-11 3.016220e-11 7.246667e-11  );

 scatteringMatrixP0 6 6 (
 (4.721528e+00 3.796537e+00 2.989159e-01 3.646976e-03 2.795735e-04 1.539823e-05 )
 (0.000000e+00 1.174097e+01 2.418854e+00 2.868776e-03 2.439853e-04 1.086808e-05 )
 (0.000000e+00 0.000000e+00 2.335625e+01 1.039037e+00 1.721532e-03 1.043051e-04 )
 (0.000000e+00 0.000000e+00 0.000000e+00 1.921085e+01 1.039170e+00 7.579224e-04 )
 (0.000000e+00 0.000000e+00 0.000000e+00 0.000000e+00 2.079335e+01 3.256041e-01 )
 (0.000000e+00 0.000000e+00 0.000000e+00 0.000000e+00 0.000000e+00 2.261146e+01 )
 );

 sigmaDisapp nonuniform List<scalar> 6 (4.962717e+00 3.079099e+00 1.708096e+00 2.149683e+00 2.562501e+00 5.488783e+00  );

 chiPrompt nonuniform List<scalar> 6 (3.681957e-01 5.107793e-01 1.194810e-01 1.380599e-03 1.551230e-04 8.166912e-06  );

 chiDelayed nonuniform List<scalar> 6 (3.405088e-03 3.941727e-01 5.803533e-01 1.986596e-02 2.094454e-03 1.085553e-04  );

 Beta nonuniform List<scalar> 6 (8.537982e-05 7.259138e-04 4.943275e-04 1.059603e-03 5.787405e-04 1.881706e-04  );

 lambda nonuniform List<scalar> 6 (1.338245e-02 3.044481e-02 1.150333e-01 3.000982e-01 8.619297e-01 2.896206e+00  );

 discFactor nonuniform List<scalar> 6 (1.000000e+00 1.000000e+00 1.000000e+00 1.000000e+00 1.000000e+00 1.000000e+00  );

 integralFlux nonuniform List<scalar> 6 (1.000000e+00 1.000000e+00 1.000000e+00 1.000000e+00 1.000000e+00 1.000000e+00  );

 }

intermed 
{ 
 fuelFraction 1.000000e+00 ; 

 IV nonuniform List<scalar> 6 (3.965039e-08 7.379007e-08 2.572089e-07 6.511596e-07 1.416132e-06 3.314330e-06  );

 D nonuniform List<scalar> 6 (3.442014e-02 2.249197e-02 1.329913e-02 1.560516e-02 1.427194e-02 1.186253e-02  );

 nuSigmaEff nonuniform List<scalar> 6 (2.277484e+00 1.792158e+00 1.151339e+00 1.482858e+00 2.741234e+00 6.562979e+00  );

 sigmaPow nonuniform List<scalar> 6 (2.137163e-11 1.889217e-11 1.264557e-11 1.631599e-11 3.016220e-11 7.246667e-11  );

 scatteringMatrixP0 6 6 (
 (4.721528e+00 3.796537e+00 2.989159e-01 3.646976e-03 2.795735e-04 1.539823e-05 )
 (0.000000e+00 1.174097e+01 2.418854e+00 2.868776e-03 2.439853e-04 1.086808e-05 )
 (0.000000e+00 0.000000e+00 2.335625e+01 1.039037e+00 1.721532e-03 1.043051e-04 )
 (0.000000e+00 0.000000e+00 0.000000e+00 1.921085e+01 1.039170e+00 7.579224e-04 )
 (0.000000e+00 0.000000e+00 0.000000e+00 0.000000e+00 2.079335e+01 3.256041e-01 )
 (0.000000e+00 0.000000e+00 0.000000e+00 0.000000e+00 0.000000e+00 2.261146e+01 )
 );

 sigmaDisapp nonuniform List<scalar> 6 (4.962717e+00 3.079099e+00 1.708096e+00 2.149683e+00 2.562501e+00 5.488783e+00  );

 chiPrompt nonuniform List<scalar> 6 (3.681957e-01 5.107793e-01 1.194810e-01 1.380599e-03 1.551230e-04 8.166912e-06  );

 chiDelayed nonuniform List<scalar> 6 (3.405088e-03 3.941727e-01 5.803533e-01 1.986596e-02 2.094454e-03 1.085553e-04  );

 Beta nonuniform List<scalar> 6 (8.537982e-05 7.259138e-04 4.943275e-04 1.059603e-03 5.787405e-04 1.881706e-04  );

 lambda nonuniform List<scalar> 6 (1.338245e-02 3.044481e-02 1.150333e-01 3.000982e-01 8.619297e-01 2.896206e+00  );

 discFactor nonuniform List<scalar> 6 (1.000000e+00 1.000000e+00 1.000000e+00 1.000000e+00 1.000000e+00 1.000000e+00  );

 integralFlux nonuniform List<scalar> 6 (1.000000e+00 1.000000e+00 1.000000e+00 1.000000e+00 1.000000e+00 1.000000e+00  );

 }

main_fd 
{ 
 fuelFraction 1.000000e+00 ; 

 IV nonuniform List<scalar> 6 (3.965039e-08 7.379007e-08 2.572089e-07 6.511596e-07 1.416132e-06 3.314330e-06  );

 D nonuniform List<scalar> 6 (3.442014e-02 2.249197e-02 1.329913e-02 1.560516e-02 1.427194e-02 1.186253e-02  );

 nuSigmaEff nonuniform List<scalar> 6 (2.277484e+00 1.792158e+00 1.151339e+00 1.482858e+00 2.741234e+00 6.562979e+00  );

 sigmaPow nonuniform List<scalar> 6 (2.137163e-11 1.889217e-11 1.264557e-11 1.631599e-11 3.016220e-11 7.246667e-11  );

 scatteringMatrixP0 6 6 (
 (4.721528e+00 3.796537e+00 2.989159e-01 3.646976e-03 2.795735e-04 1.539823e-05 )
 (0.000000e+00 1.174097e+01 2.418854e+00 2.868776e-03 2.439853e-04 1.086808e-05 )
 (0.000000e+00 0.000000e+00 2.335625e+01 1.039037e+00 1.721532e-03 1.043051e-04 )
 (0.000000e+00 0.000000e+00 0.000000e+00 1.921085e+01 1.039170e+00 7.579224e-04 )
 (0.000000e+00 0.000000e+00 0.000000e+00 0.000000e+00 2.079335e+01 3.256041e-01 )
 (0.000000e+00 0.000000e+00 0.000000e+00 0.000000e+00 0.000000e+00 2.261146e+01 )
 );

 sigmaDisapp nonuniform List<scalar> 6 (4.962717e+00 3.079099e+00 1.708096e+00 2.149683e+00 2.562501e+00 5.488783e+00  );

 chiPrompt nonuniform List<scalar> 6 (3.681957e-01 5.107793e-01 1.194810e-01 1.380599e-03 1.551230e-04 8.166912e-06  );

 chiDelayed nonuniform List<scalar> 6 (3.405088e-03 3.941727e-01 5.803533e-01 1.986596e-02 2.094454e-03 1.085553e-04  );

 Beta nonuniform List<scalar> 6 (8.537982e-05 7.259138e-04 4.943275e-04 1.059603e-03 5.787405e-04 1.881706e-04  );

 lambda nonuniform List<scalar> 6 (1.338245e-02 3.044481e-02 1.150333e-01 3.000982e-01 8.619297e-01 2.896206e+00  );

 discFactor nonuniform List<scalar> 6 (1.000000e+00 1.000000e+00 1.000000e+00 1.000000e+00 1.000000e+00 1.000000e+00  );

 integralFlux nonuniform List<scalar> 6 (1.000000e+00 1.000000e+00 1.000000e+00 1.000000e+00 1.000000e+00 1.000000e+00  );

 }

pump 
{ 
 fuelFraction 1.000000e+00 ; 

 IV nonuniform List<scalar> 6 (3.965039e-08 7.379007e-08 2.572089e-07 6.511596e-07 1.416132e-06 3.314330e-06  );

 D nonuniform List<scalar> 6 (3.442014e-02 2.249197e-02 1.329913e-02 1.560516e-02 1.427194e-02 1.186253e-02  );

 nuSigmaEff nonuniform List<scalar> 6 (2.277484e+00 1.792158e+00 1.151339e+00 1.482858e+00 2.741234e+00 6.562979e+00  );

 sigmaPow nonuniform List<scalar> 6 (2.137163e-11 1.889217e-11 1.264557e-11 1.631599e-11 3.016220e-11 7.246667e-11  );

 scatteringMatrixP0 6 6 (
 (4.721528e+00 3.796537e+00 2.989159e-01 3.646976e-03 2.795735e-04 1.539823e-05 )
 (0.000000e+00 1.174097e+01 2.418854e+00 2.868776e-03 2.439853e-04 1.086808e-05 )
 (0.000000e+00 0.000000e+00 2.335625e+01 1.039037e+00 1.721532e-03 1.043051e-04 )
 (0.000000e+00 0.000000e+00 0.000000e+00 1.921085e+01 1.039170e+00 7.579224e-04 )
 (0.000000e+00 0.000000e+00 0.000000e+00 0.000000e+00 2.079335e+01 3.256041e-01 )
 (0.000000e+00 0.000000e+00 0.000000e+00 0.000000e+00 0.000000e+00 2.261146e+01 )
 );

 sigmaDisapp nonuniform List<scalar> 6 (4.962717e+00 3.079099e+00 1.708096e+00 2.149683e+00 2.562501e+00 5.488783e+00  );

 chiPrompt nonuniform List<scalar> 6 (3.681957e-01 5.107793e-01 1.194810e-01 1.380599e-03 1.551230e-04 8.166912e-06  );

 chiDelayed nonuniform List<scalar> 6 (3.405088e-03 3.941727e-01 5.803533e-01 1.986596e-02 2.094454e-03 1.085553e-04  );

 Beta nonuniform List<scalar> 6 (8.537982e-05 7.259138e-04 4.943275e-04 1.059603e-03 5.787405e-04 1.881706e-04  );

 lambda nonuniform List<scalar> 6 (1.338245e-02 3.044481e-02 1.150333e-01 3.000982e-01 8.619297e-01 2.896206e+00  );

 discFactor nonuniform List<scalar> 6 (1.000000e+00 1.000000e+00 1.000000e+00 1.000000e+00 1.000000e+00 1.000000e+00  );

 integralFlux nonuniform List<scalar> 6 (1.000000e+00 1.000000e+00 1.000000e+00 1.000000e+00 1.000000e+00 1.000000e+00  );

 }

); 
