
/*
 crossSection dictionary
 Generatd by serpentToFoamXS 
 25-Jul-2018
 From SERPENT results file: msfr_t_res
*/

/*
physical delayed neutron fraction and spectrum
*/

FoamFile
{
    version     2.0;
    format      ascii;
    class       dictionary;
    location    constant;
    object      msfr_t_res;
}

 energyGroups 6 ; 

 precGroups 6 ; 
 TfuelRef 9.00000e+02 ; 
 TfuelPerturbed 1.100000e+03 ; 
zones 
 ( 

hx 
{ 
 fuelFraction 1.000000e+00 ; 

 IV nonuniform List<scalar> 6 (3.965013e-08 7.379060e-08 2.572105e-07 6.511426e-07 1.415646e-06 3.309367e-06  );

 D nonuniform List<scalar> 6 (2.852860e-02 1.864255e-02 1.102280e-02 1.293259e-02 1.182147e-02 9.803821e-03  );

 nuSigmaEff nonuniform List<scalar> 6 (2.747810e+00 2.162221e+00 1.389095e+00 1.789718e+00 3.312330e+00 7.948473e+00  );

 sigmaPow nonuniform List<scalar> 6 (2.578498e-11 2.279325e-11 1.525693e-11 1.969241e-11 3.644608e-11 8.776259e-11  );

 scatteringMatrixP0 6 6 (
 (5.696786e+00 4.580538e+00 3.606247e-01 4.371419e-03 3.384578e-04 1.849733e-05 )
 (0.000000e+00 1.416520e+01 2.918310e+00 3.465422e-03 2.923554e-04 1.287909e-05 )
 (0.000000e+00 0.000000e+00 2.817974e+01 1.253569e+00 2.075338e-03 1.266536e-04 )
 (0.000000e+00 0.000000e+00 0.000000e+00 2.318071e+01 1.253427e+00 9.176456e-04 )
 (0.000000e+00 0.000000e+00 0.000000e+00 0.000000e+00 2.510218e+01 3.913890e-01 )
 (0.000000e+00 0.000000e+00 0.000000e+00 0.000000e+00 0.000000e+00 2.733771e+01 )
 );

 sigmaDisapp nonuniform List<scalar> 6 (5.987504e+00 3.714892e+00 2.060794e+00 2.593776e+00 3.095409e+00 6.662607e+00  );

 chiPrompt nonuniform List<scalar> 6 (3.681691e-01 5.108196e-01 1.194661e-01 1.381753e-03 1.554436e-04 8.066136e-06  );

 chiDelayed nonuniform List<scalar> 6 (3.445361e-03 3.941199e-01 5.804635e-01 1.971733e-02 2.150096e-03 1.037275e-04  );

 Beta nonuniform List<scalar> 6 (8.537789e-05 7.258329e-04 4.942810e-04 1.059464e-03 5.786584e-04 1.881401e-04  );

 lambda nonuniform List<scalar> 6 (1.338241e-02 3.044494e-02 1.150329e-01 3.000962e-01 8.619270e-01 2.896171e+00  );

 discFactor nonuniform List<scalar> 6 (1.000000e+00 1.000000e+00 1.000000e+00 1.000000e+00 1.000000e+00 1.000000e+00  );

 integralFlux nonuniform List<scalar> 6 (1.000000e+00 1.000000e+00 1.000000e+00 1.000000e+00 1.000000e+00 1.000000e+00  );

 }

intermed 
{ 
 fuelFraction 1.000000e+00 ; 

 IV nonuniform List<scalar> 6 (3.965013e-08 7.379060e-08 2.572105e-07 6.511426e-07 1.415646e-06 3.309367e-06  );

 D nonuniform List<scalar> 6 (2.852860e-02 1.864255e-02 1.102280e-02 1.293259e-02 1.182147e-02 9.803821e-03  );

 nuSigmaEff nonuniform List<scalar> 6 (2.747810e+00 2.162221e+00 1.389095e+00 1.789718e+00 3.312330e+00 7.948473e+00  );

 sigmaPow nonuniform List<scalar> 6 (2.578498e-11 2.279325e-11 1.525693e-11 1.969241e-11 3.644608e-11 8.776259e-11  );

 scatteringMatrixP0 6 6 (
 (5.696786e+00 4.580538e+00 3.606247e-01 4.371419e-03 3.384578e-04 1.849733e-05 )
 (0.000000e+00 1.416520e+01 2.918310e+00 3.465422e-03 2.923554e-04 1.287909e-05 )
 (0.000000e+00 0.000000e+00 2.817974e+01 1.253569e+00 2.075338e-03 1.266536e-04 )
 (0.000000e+00 0.000000e+00 0.000000e+00 2.318071e+01 1.253427e+00 9.176456e-04 )
 (0.000000e+00 0.000000e+00 0.000000e+00 0.000000e+00 2.510218e+01 3.913890e-01 )
 (0.000000e+00 0.000000e+00 0.000000e+00 0.000000e+00 0.000000e+00 2.733771e+01 )
 );

 sigmaDisapp nonuniform List<scalar> 6 (5.987504e+00 3.714892e+00 2.060794e+00 2.593776e+00 3.095409e+00 6.662607e+00  );

 chiPrompt nonuniform List<scalar> 6 (3.681691e-01 5.108196e-01 1.194661e-01 1.381753e-03 1.554436e-04 8.066136e-06  );

 chiDelayed nonuniform List<scalar> 6 (3.445361e-03 3.941199e-01 5.804635e-01 1.971733e-02 2.150096e-03 1.037275e-04  );

 Beta nonuniform List<scalar> 6 (8.537789e-05 7.258329e-04 4.942810e-04 1.059464e-03 5.786584e-04 1.881401e-04  );

 lambda nonuniform List<scalar> 6 (1.338241e-02 3.044494e-02 1.150329e-01 3.000962e-01 8.619270e-01 2.896171e+00  );

 discFactor nonuniform List<scalar> 6 (1.000000e+00 1.000000e+00 1.000000e+00 1.000000e+00 1.000000e+00 1.000000e+00  );

 integralFlux nonuniform List<scalar> 6 (1.000000e+00 1.000000e+00 1.000000e+00 1.000000e+00 1.000000e+00 1.000000e+00  );

 }

main_fd 
{ 
 fuelFraction 1.000000e+00 ; 

 IV nonuniform List<scalar> 6 (3.965013e-08 7.379060e-08 2.572105e-07 6.511426e-07 1.415646e-06 3.309367e-06  );

 D nonuniform List<scalar> 6 (2.852860e-02 1.864255e-02 1.102280e-02 1.293259e-02 1.182147e-02 9.803821e-03  );

 nuSigmaEff nonuniform List<scalar> 6 (2.747810e+00 2.162221e+00 1.389095e+00 1.789718e+00 3.312330e+00 7.948473e+00  );

 sigmaPow nonuniform List<scalar> 6 (2.578498e-11 2.279325e-11 1.525693e-11 1.969241e-11 3.644608e-11 8.776259e-11  );

 scatteringMatrixP0 6 6 (
 (5.696786e+00 4.580538e+00 3.606247e-01 4.371419e-03 3.384578e-04 1.849733e-05 )
 (0.000000e+00 1.416520e+01 2.918310e+00 3.465422e-03 2.923554e-04 1.287909e-05 )
 (0.000000e+00 0.000000e+00 2.817974e+01 1.253569e+00 2.075338e-03 1.266536e-04 )
 (0.000000e+00 0.000000e+00 0.000000e+00 2.318071e+01 1.253427e+00 9.176456e-04 )
 (0.000000e+00 0.000000e+00 0.000000e+00 0.000000e+00 2.510218e+01 3.913890e-01 )
 (0.000000e+00 0.000000e+00 0.000000e+00 0.000000e+00 0.000000e+00 2.733771e+01 )
 );

 sigmaDisapp nonuniform List<scalar> 6 (5.987504e+00 3.714892e+00 2.060794e+00 2.593776e+00 3.095409e+00 6.662607e+00  );

 chiPrompt nonuniform List<scalar> 6 (3.681691e-01 5.108196e-01 1.194661e-01 1.381753e-03 1.554436e-04 8.066136e-06  );

 chiDelayed nonuniform List<scalar> 6 (3.445361e-03 3.941199e-01 5.804635e-01 1.971733e-02 2.150096e-03 1.037275e-04  );

 Beta nonuniform List<scalar> 6 (8.537789e-05 7.258329e-04 4.942810e-04 1.059464e-03 5.786584e-04 1.881401e-04  );

 lambda nonuniform List<scalar> 6 (1.338241e-02 3.044494e-02 1.150329e-01 3.000962e-01 8.619270e-01 2.896171e+00  );

 discFactor nonuniform List<scalar> 6 (1.000000e+00 1.000000e+00 1.000000e+00 1.000000e+00 1.000000e+00 1.000000e+00  );

 integralFlux nonuniform List<scalar> 6 (1.000000e+00 1.000000e+00 1.000000e+00 1.000000e+00 1.000000e+00 1.000000e+00  );

 }

pump 
{ 
 fuelFraction 1.000000e+00 ; 

 IV nonuniform List<scalar> 6 (3.965013e-08 7.379060e-08 2.572105e-07 6.511426e-07 1.415646e-06 3.309367e-06  );

 D nonuniform List<scalar> 6 (2.852860e-02 1.864255e-02 1.102280e-02 1.293259e-02 1.182147e-02 9.803821e-03  );

 nuSigmaEff nonuniform List<scalar> 6 (2.747810e+00 2.162221e+00 1.389095e+00 1.789718e+00 3.312330e+00 7.948473e+00  );

 sigmaPow nonuniform List<scalar> 6 (2.578498e-11 2.279325e-11 1.525693e-11 1.969241e-11 3.644608e-11 8.776259e-11  );

 scatteringMatrixP0 6 6 (
 (5.696786e+00 4.580538e+00 3.606247e-01 4.371419e-03 3.384578e-04 1.849733e-05 )
 (0.000000e+00 1.416520e+01 2.918310e+00 3.465422e-03 2.923554e-04 1.287909e-05 )
 (0.000000e+00 0.000000e+00 2.817974e+01 1.253569e+00 2.075338e-03 1.266536e-04 )
 (0.000000e+00 0.000000e+00 0.000000e+00 2.318071e+01 1.253427e+00 9.176456e-04 )
 (0.000000e+00 0.000000e+00 0.000000e+00 0.000000e+00 2.510218e+01 3.913890e-01 )
 (0.000000e+00 0.000000e+00 0.000000e+00 0.000000e+00 0.000000e+00 2.733771e+01 )
 );

 sigmaDisapp nonuniform List<scalar> 6 (5.987504e+00 3.714892e+00 2.060794e+00 2.593776e+00 3.095409e+00 6.662607e+00  );

 chiPrompt nonuniform List<scalar> 6 (3.681691e-01 5.108196e-01 1.194661e-01 1.381753e-03 1.554436e-04 8.066136e-06  );

 chiDelayed nonuniform List<scalar> 6 (3.445361e-03 3.941199e-01 5.804635e-01 1.971733e-02 2.150096e-03 1.037275e-04  );

 Beta nonuniform List<scalar> 6 (8.537789e-05 7.258329e-04 4.942810e-04 1.059464e-03 5.786584e-04 1.881401e-04  );

 lambda nonuniform List<scalar> 6 (1.338241e-02 3.044494e-02 1.150329e-01 3.000962e-01 8.619270e-01 2.896171e+00  );

 discFactor nonuniform List<scalar> 6 (1.000000e+00 1.000000e+00 1.000000e+00 1.000000e+00 1.000000e+00 1.000000e+00  );

 integralFlux nonuniform List<scalar> 6 (1.000000e+00 1.000000e+00 1.000000e+00 1.000000e+00 1.000000e+00 1.000000e+00  );

 }

); 
