/*
 crossSection dictionary
 Generatd by OpenMC2FoamXS 
 03/02/2023 21:07:40
 OpenMC results file: results

effective delayed neutron fraction, prompt neutron spectrum
*/

FoamFile
{
    version     2.0;
    format      ascii;
    class       dictionary;
    location    constant;
    object      results;
}

fastNeutrons          true;

adjustDiscFactors     false;

useGivenDiscFactors   false;

promptGenerationTime 1.26e-06;

Beta (3.840223e-05 3.204702e-04 2.395536e-04 5.225478e-04 2.802616e-04 7.782042e-05  );

lambda (1.338711e-02 3.053720e-02 1.133525e-01 2.974556e-01 8.488464e-01 0.000000e+00  );

feedbackCoeffFastDoppler 0.037772632;

feedbackCoeffTFuel 0;

feedbackCoeffTClad 0;

feedbackCoeffTCool 0;

feedbackCoeffRhoCool 4.55597e-05;

feedbackCoeffTStruct 0;

absoluteDrivelineExpansionCoeff 0;

controlRodReactivityMap ( ( 0.1 -0.01 ) ( 0 0 ) ( -0.1 0.01 ) ); 

initPrecursorsLiquidFuel true;


 energyGroups 6 ;

 precGroups 6 ;

zones 
 ( 

hx 
{ 
 fuelFraction 1.000000e+00 ; 

 IV nonuniform List<scalar> 6 (4.049752e-08 7.520467e-08 2.080064e-07 5.778793e-07 1.179535e-06 3.291320e-06  );

 D nonuniform List<scalar> 6 (5.718134e-02 7.006949e-02 5.688754e-02 5.647974e-02 5.150115e-02 3.486651e-02  );

 nuSigmaEff nonuniform List<scalar> 6 (1.300540e+00 7.966776e-01 2.858060e-01 4.231705e-01 7.496916e-01 1.931870e+00  );

 sigmaPow nonuniform List<scalar> 6 (1.151028e-11 7.732462e-12 2.646871e-12 3.901321e-12 6.910710e-12 1.781506e-11  );

 scatteringMatrixP0 6 6 (
 (3.532996e+00 1.536086e+00 2.275202e-01 1.822621e-03 1.557522e-04 6.994715e-06 )
 (0.000000e+00 3.969804e+00 4.785923e-01 1.915920e-03 1.846086e-04 8.646162e-06 )
 (0.000000e+00 0.000000e+00 5.486035e+00 5.247360e-02 3.188000e-04 5.949504e-06 )
 (0.000000e+00 0.000000e+00 0.000000e+00 5.226000e+00 4.326437e-02 0.000000e+00 )
 (0.000000e+00 0.000000e+00 0.000000e+00 0.000000e+00 5.343440e+00 3.513694e-03 )
 (0.000000e+00 0.000000e+00 0.000000e+00 0.000000e+00 0.000000e+00 6.464635e+00 )
 );

 sigmaDisapp nonuniform List<scalar> 6 (2.296363e+00 7.874097e-01 3.734394e-01 6.758178e-01 1.129672e+00 3.104642e+00  );

 chiPrompt nonuniform List<scalar> 6 (4.000018e-01 4.901285e-01 1.084869e-01 1.236982e-03 1.386475e-04 7.255579e-06  );

 chiDelayed nonuniform List<scalar> 6 (2.808125e-03 3.825664e-01 5.925797e-01 1.990590e-02 2.037367e-03 1.025430e-04  );

 Beta nonuniform List<scalar> 6 (3.840223e-05 3.204702e-04 2.395536e-04 5.225478e-04 2.802616e-04 7.782042e-05  );

 lambda nonuniform List<scalar> 6 (1.338711e-02 3.053720e-02 1.133525e-01 2.974556e-01 8.488464e-01 0.000000e+00  );

 discFactor nonuniform List<scalar> 6 (1.000000e+00 1.000000e+00 1.000000e+00 1.000000e+00 1.000000e+00 1.000000e+00  );

 integralFlux nonuniform List<scalar> 6 (1.000000e+00 1.000000e+00 1.000000e+00 1.000000e+00 1.000000e+00 1.000000e+00  );

 }

intermed 
{ 
 fuelFraction 1.000000e+00 ; 

 IV nonuniform List<scalar> 6 (4.049752e-08 7.520467e-08 2.080064e-07 5.778793e-07 1.179535e-06 3.291320e-06  );

 D nonuniform List<scalar> 6 (5.718134e-02 7.006949e-02 5.688754e-02 5.647974e-02 5.150115e-02 3.486651e-02  );

 nuSigmaEff nonuniform List<scalar> 6 (1.300540e+00 7.966776e-01 2.858060e-01 4.231705e-01 7.496916e-01 1.931870e+00  );

 sigmaPow nonuniform List<scalar> 6 (1.151028e-11 7.732462e-12 2.646871e-12 3.901321e-12 6.910710e-12 1.781506e-11  );

 scatteringMatrixP0 6 6 (
 (3.532996e+00 1.536086e+00 2.275202e-01 1.822621e-03 1.557522e-04 6.994715e-06 )
 (0.000000e+00 3.969804e+00 4.785923e-01 1.915920e-03 1.846086e-04 8.646162e-06 )
 (0.000000e+00 0.000000e+00 5.486035e+00 5.247360e-02 3.188000e-04 5.949504e-06 )
 (0.000000e+00 0.000000e+00 0.000000e+00 5.226000e+00 4.326437e-02 0.000000e+00 )
 (0.000000e+00 0.000000e+00 0.000000e+00 0.000000e+00 5.343440e+00 3.513694e-03 )
 (0.000000e+00 0.000000e+00 0.000000e+00 0.000000e+00 0.000000e+00 6.464635e+00 )
 );

 sigmaDisapp nonuniform List<scalar> 6 (2.296363e+00 7.874097e-01 3.734394e-01 6.758178e-01 1.129672e+00 3.104642e+00  );

 chiPrompt nonuniform List<scalar> 6 (4.000018e-01 4.901285e-01 1.084869e-01 1.236982e-03 1.386475e-04 7.255579e-06  );

 chiDelayed nonuniform List<scalar> 6 (2.808125e-03 3.825664e-01 5.925797e-01 1.990590e-02 2.037367e-03 1.025430e-04  );

 Beta nonuniform List<scalar> 6 (3.840223e-05 3.204702e-04 2.395536e-04 5.225478e-04 2.802616e-04 7.782042e-05  );

 lambda nonuniform List<scalar> 6 (1.338711e-02 3.053720e-02 1.133525e-01 2.974556e-01 8.488464e-01 0.000000e+00  );

 discFactor nonuniform List<scalar> 6 (1.000000e+00 1.000000e+00 1.000000e+00 1.000000e+00 1.000000e+00 1.000000e+00  );

 integralFlux nonuniform List<scalar> 6 (1.000000e+00 1.000000e+00 1.000000e+00 1.000000e+00 1.000000e+00 1.000000e+00  );

 }

main_fd 
{ 
 fuelFraction 1.000000e+00 ; 

 IV nonuniform List<scalar> 6 (4.049752e-08 7.520467e-08 2.080064e-07 5.778793e-07 1.179535e-06 3.291320e-06  );

 D nonuniform List<scalar> 6 (5.718134e-02 7.006949e-02 5.688754e-02 5.647974e-02 5.150115e-02 3.486651e-02  );

 nuSigmaEff nonuniform List<scalar> 6 (1.300540e+00 7.966776e-01 2.858060e-01 4.231705e-01 7.496916e-01 1.931870e+00  );

 sigmaPow nonuniform List<scalar> 6 (1.151028e-11 7.732462e-12 2.646871e-12 3.901321e-12 6.910710e-12 1.781506e-11  );

 scatteringMatrixP0 6 6 (
 (3.532996e+00 1.536086e+00 2.275202e-01 1.822621e-03 1.557522e-04 6.994715e-06 )
 (0.000000e+00 3.969804e+00 4.785923e-01 1.915920e-03 1.846086e-04 8.646162e-06 )
 (0.000000e+00 0.000000e+00 5.486035e+00 5.247360e-02 3.188000e-04 5.949504e-06 )
 (0.000000e+00 0.000000e+00 0.000000e+00 5.226000e+00 4.326437e-02 0.000000e+00 )
 (0.000000e+00 0.000000e+00 0.000000e+00 0.000000e+00 5.343440e+00 3.513694e-03 )
 (0.000000e+00 0.000000e+00 0.000000e+00 0.000000e+00 0.000000e+00 6.464635e+00 )
 );

 sigmaDisapp nonuniform List<scalar> 6 (2.296363e+00 7.874097e-01 3.734394e-01 6.758178e-01 1.129672e+00 3.104642e+00  );

 chiPrompt nonuniform List<scalar> 6 (4.000018e-01 4.901285e-01 1.084869e-01 1.236982e-03 1.386475e-04 7.255579e-06  );

 chiDelayed nonuniform List<scalar> 6 (2.808125e-03 3.825664e-01 5.925797e-01 1.990590e-02 2.037367e-03 1.025430e-04  );

 Beta nonuniform List<scalar> 6 (3.840223e-05 3.204702e-04 2.395536e-04 5.225478e-04 2.802616e-04 7.782042e-05  );

 lambda nonuniform List<scalar> 6 (1.338711e-02 3.053720e-02 1.133525e-01 2.974556e-01 8.488464e-01 0.000000e+00  );

 discFactor nonuniform List<scalar> 6 (1.000000e+00 1.000000e+00 1.000000e+00 1.000000e+00 1.000000e+00 1.000000e+00  );

 integralFlux nonuniform List<scalar> 6 (1.000000e+00 1.000000e+00 1.000000e+00 1.000000e+00 1.000000e+00 1.000000e+00  );

 }

pump 
{ 
 fuelFraction 1.000000e+00 ; 

 IV nonuniform List<scalar> 6 (4.049752e-08 7.520467e-08 2.080064e-07 5.778793e-07 1.179535e-06 3.291320e-06  );

 D nonuniform List<scalar> 6 (5.718134e-02 7.006949e-02 5.688754e-02 5.647974e-02 5.150115e-02 3.486651e-02  );

 nuSigmaEff nonuniform List<scalar> 6 (1.300540e+00 7.966776e-01 2.858060e-01 4.231705e-01 7.496916e-01 1.931870e+00  );

 sigmaPow nonuniform List<scalar> 6 (1.151028e-11 7.732462e-12 2.646871e-12 3.901321e-12 6.910710e-12 1.781506e-11  );

 scatteringMatrixP0 6 6 (
 (3.532996e+00 1.536086e+00 2.275202e-01 1.822621e-03 1.557522e-04 6.994715e-06 )
 (0.000000e+00 3.969804e+00 4.785923e-01 1.915920e-03 1.846086e-04 8.646162e-06 )
 (0.000000e+00 0.000000e+00 5.486035e+00 5.247360e-02 3.188000e-04 5.949504e-06 )
 (0.000000e+00 0.000000e+00 0.000000e+00 5.226000e+00 4.326437e-02 0.000000e+00 )
 (0.000000e+00 0.000000e+00 0.000000e+00 0.000000e+00 5.343440e+00 3.513694e-03 )
 (0.000000e+00 0.000000e+00 0.000000e+00 0.000000e+00 0.000000e+00 6.464635e+00 )
 );

 sigmaDisapp nonuniform List<scalar> 6 (2.296363e+00 7.874097e-01 3.734394e-01 6.758178e-01 1.129672e+00 3.104642e+00  );

 chiPrompt nonuniform List<scalar> 6 (4.000018e-01 4.901285e-01 1.084869e-01 1.236982e-03 1.386475e-04 7.255579e-06  );

 chiDelayed nonuniform List<scalar> 6 (2.808125e-03 3.825664e-01 5.925797e-01 1.990590e-02 2.037367e-03 1.025430e-04  );

 Beta nonuniform List<scalar> 6 (3.840223e-05 3.204702e-04 2.395536e-04 5.225478e-04 2.802616e-04 7.782042e-05  );

 lambda nonuniform List<scalar> 6 (1.338711e-02 3.053720e-02 1.133525e-01 2.974556e-01 8.488464e-01 0.000000e+00  );

 discFactor nonuniform List<scalar> 6 (1.000000e+00 1.000000e+00 1.000000e+00 1.000000e+00 1.000000e+00 1.000000e+00  );

 integralFlux nonuniform List<scalar> 6 (1.000000e+00 1.000000e+00 1.000000e+00 1.000000e+00 1.000000e+00 1.000000e+00  );

 }

); 
