/*
 crossSection dictionary
 Generatd by OpenMC2FoamXS 
 29/06/2023 13:21:10
 OpenMC results file: results

effective delayed neutron fraction, prompt neutron spectrum
*/

FoamFile
{
    version     2.0;
    format      ascii;
    class       dictionary;
    location    constant;
    object      results;
}

fastNeutrons          true;

adjustDiscFactors     false;

useGivenDiscFactors   false;

promptGenerationTime 2.69957e-07;

Beta (2.582803e-04 6.972014e-04 5.567656e-04 1.140072e-03 3.771087e-04 1.410668e-04  );

lambda (1.289038e-02 3.466888e-02 1.194127e-01 2.900216e-01 8.409852e-01 2.580716e+00  );

feedbackCoeffFastDoppler 0.016807533;

feedbackCoeffTFuel 0;

feedbackCoeffTClad 0;

feedbackCoeffTCool 0;

feedbackCoeffRhoCool 3.5774e-05;

feedbackCoeffTStruct 0;

absoluteDrivelineExpansionCoeff 0;

controlRodReactivityMap ( ( 0.1 -0.01 ) ( 0 0 ) ( -0.1 0.01 ) ); 

initPrecursorsLiquidFuel true;


 energyGroups 6 ;

 precGroups 6 ;

zones 
 ( 

hx 
{ 
 fuelFraction 1.000000e+00 ; 

 IV nonuniform List<scalar> 6 (3.987964e-08 7.507583e-08 2.658770e-07 6.540489e-07 1.440755e-06 3.518978e-06  );

 D nonuniform List<scalar> 6 (2.410498e-02 1.575472e-02 9.691676e-03 1.163692e-02 1.093018e-02 9.838263e-03  );

 nuSigmaEff nonuniform List<scalar> 6 (8.916106e-01 6.864938e-01 7.942541e-01 1.202410e+00 2.239947e+00 5.124584e+00  );

 sigmaPow nonuniform List<scalar> 6 (9.639119e-12 8.138353e-12 9.691198e-12 1.468393e-11 2.735581e-11 6.258708e-11  );

 scatteringMatrixP0 6 6 (
 (6.883009e+00 5.835062e+00 5.645941e-01 2.968410e-03 2.940115e-04 2.411552e-05 )
 (0.000000e+00 1.716818e+01 3.594297e+00 4.277103e-03 3.142627e-04 1.399794e-05 )
 (0.000000e+00 0.000000e+00 3.240370e+01 1.322008e+00 3.064806e-03 1.443923e-04 )
 (0.000000e+00 0.000000e+00 0.000000e+00 2.636428e+01 1.133024e+00 0.000000e+00 )
 (0.000000e+00 0.000000e+00 0.000000e+00 0.000000e+00 2.791914e+01 4.169095e-01 )
 (0.000000e+00 0.000000e+00 0.000000e+00 0.000000e+00 0.000000e+00 2.918226e+01 )
 );

 sigmaDisapp nonuniform List<scalar> 6 (6.945437e+00 3.989570e+00 1.990106e+00 2.280191e+00 2.577340e+00 4.699021e+00  );

 chiPrompt nonuniform List<scalar> 6 (3.640117e-01 5.129334e-01 1.214452e-01 1.439623e-03 1.616543e-04 8.421541e-06  );

 chiDelayed nonuniform List<scalar> 6 (3.298506e-03 3.878751e-01 5.836838e-01 2.248282e-02 2.527012e-03 1.327799e-04  );

 Beta nonuniform List<scalar> 6 (2.582803e-04 6.972014e-04 5.567656e-04 1.140072e-03 3.771087e-04 1.410668e-04  );

 lambda nonuniform List<scalar> 6 (1.289038e-02 3.466888e-02 1.194127e-01 2.900216e-01 8.409852e-01 2.580716e+00  );

 discFactor nonuniform List<scalar> 6 (1.000000e+00 1.000000e+00 1.000000e+00 1.000000e+00 1.000000e+00 1.000000e+00  );

 integralFlux nonuniform List<scalar> 6 (1.000000e+00 1.000000e+00 1.000000e+00 1.000000e+00 1.000000e+00 1.000000e+00  );

 }

intermed 
{ 
 fuelFraction 1.000000e+00 ; 

 IV nonuniform List<scalar> 6 (3.987964e-08 7.507583e-08 2.658770e-07 6.540489e-07 1.440755e-06 3.518978e-06  );

 D nonuniform List<scalar> 6 (2.410498e-02 1.575472e-02 9.691676e-03 1.163692e-02 1.093018e-02 9.838263e-03  );

 nuSigmaEff nonuniform List<scalar> 6 (8.916106e-01 6.864938e-01 7.942541e-01 1.202410e+00 2.239947e+00 5.124584e+00  );

 sigmaPow nonuniform List<scalar> 6 (9.639119e-12 8.138353e-12 9.691198e-12 1.468393e-11 2.735581e-11 6.258708e-11  );

 scatteringMatrixP0 6 6 (
 (6.883009e+00 5.835062e+00 5.645941e-01 2.968410e-03 2.940115e-04 2.411552e-05 )
 (0.000000e+00 1.716818e+01 3.594297e+00 4.277103e-03 3.142627e-04 1.399794e-05 )
 (0.000000e+00 0.000000e+00 3.240370e+01 1.322008e+00 3.064806e-03 1.443923e-04 )
 (0.000000e+00 0.000000e+00 0.000000e+00 2.636428e+01 1.133024e+00 0.000000e+00 )
 (0.000000e+00 0.000000e+00 0.000000e+00 0.000000e+00 2.791914e+01 4.169095e-01 )
 (0.000000e+00 0.000000e+00 0.000000e+00 0.000000e+00 0.000000e+00 2.918226e+01 )
 );

 sigmaDisapp nonuniform List<scalar> 6 (6.945437e+00 3.989570e+00 1.990106e+00 2.280191e+00 2.577340e+00 4.699021e+00  );

 chiPrompt nonuniform List<scalar> 6 (3.640117e-01 5.129334e-01 1.214452e-01 1.439623e-03 1.616543e-04 8.421541e-06  );

 chiDelayed nonuniform List<scalar> 6 (3.298506e-03 3.878751e-01 5.836838e-01 2.248282e-02 2.527012e-03 1.327799e-04  );

 Beta nonuniform List<scalar> 6 (2.582803e-04 6.972014e-04 5.567656e-04 1.140072e-03 3.771087e-04 1.410668e-04  );

 lambda nonuniform List<scalar> 6 (1.289038e-02 3.466888e-02 1.194127e-01 2.900216e-01 8.409852e-01 2.580716e+00  );

 discFactor nonuniform List<scalar> 6 (1.000000e+00 1.000000e+00 1.000000e+00 1.000000e+00 1.000000e+00 1.000000e+00  );

 integralFlux nonuniform List<scalar> 6 (1.000000e+00 1.000000e+00 1.000000e+00 1.000000e+00 1.000000e+00 1.000000e+00  );

 }

main_fd 
{ 
 fuelFraction 1.000000e+00 ; 

 IV nonuniform List<scalar> 6 (3.987964e-08 7.507583e-08 2.658770e-07 6.540489e-07 1.440755e-06 3.518978e-06  );

 D nonuniform List<scalar> 6 (2.410498e-02 1.575472e-02 9.691676e-03 1.163692e-02 1.093018e-02 9.838263e-03  );

 nuSigmaEff nonuniform List<scalar> 6 (8.916106e-01 6.864938e-01 7.942541e-01 1.202410e+00 2.239947e+00 5.124584e+00  );

 sigmaPow nonuniform List<scalar> 6 (9.639119e-12 8.138353e-12 9.691198e-12 1.468393e-11 2.735581e-11 6.258708e-11  );

 scatteringMatrixP0 6 6 (
 (6.883009e+00 5.835062e+00 5.645941e-01 2.968410e-03 2.940115e-04 2.411552e-05 )
 (0.000000e+00 1.716818e+01 3.594297e+00 4.277103e-03 3.142627e-04 1.399794e-05 )
 (0.000000e+00 0.000000e+00 3.240370e+01 1.322008e+00 3.064806e-03 1.443923e-04 )
 (0.000000e+00 0.000000e+00 0.000000e+00 2.636428e+01 1.133024e+00 0.000000e+00 )
 (0.000000e+00 0.000000e+00 0.000000e+00 0.000000e+00 2.791914e+01 4.169095e-01 )
 (0.000000e+00 0.000000e+00 0.000000e+00 0.000000e+00 0.000000e+00 2.918226e+01 )
 );

 sigmaDisapp nonuniform List<scalar> 6 (6.945437e+00 3.989570e+00 1.990106e+00 2.280191e+00 2.577340e+00 4.699021e+00  );

 chiPrompt nonuniform List<scalar> 6 (3.640117e-01 5.129334e-01 1.214452e-01 1.439623e-03 1.616543e-04 8.421541e-06  );

 chiDelayed nonuniform List<scalar> 6 (3.298506e-03 3.878751e-01 5.836838e-01 2.248282e-02 2.527012e-03 1.327799e-04  );

 Beta nonuniform List<scalar> 6 (2.582803e-04 6.972014e-04 5.567656e-04 1.140072e-03 3.771087e-04 1.410668e-04  );

 lambda nonuniform List<scalar> 6 (1.289038e-02 3.466888e-02 1.194127e-01 2.900216e-01 8.409852e-01 2.580716e+00  );

 discFactor nonuniform List<scalar> 6 (1.000000e+00 1.000000e+00 1.000000e+00 1.000000e+00 1.000000e+00 1.000000e+00  );

 integralFlux nonuniform List<scalar> 6 (1.000000e+00 1.000000e+00 1.000000e+00 1.000000e+00 1.000000e+00 1.000000e+00  );

 }

pump 
{ 
 fuelFraction 1.000000e+00 ; 

 IV nonuniform List<scalar> 6 (3.987964e-08 7.507583e-08 2.658770e-07 6.540489e-07 1.440755e-06 3.518978e-06  );

 D nonuniform List<scalar> 6 (2.410498e-02 1.575472e-02 9.691676e-03 1.163692e-02 1.093018e-02 9.838263e-03  );

 nuSigmaEff nonuniform List<scalar> 6 (8.916106e-01 6.864938e-01 7.942541e-01 1.202410e+00 2.239947e+00 5.124584e+00  );

 sigmaPow nonuniform List<scalar> 6 (9.639119e-12 8.138353e-12 9.691198e-12 1.468393e-11 2.735581e-11 6.258708e-11  );

 scatteringMatrixP0 6 6 (
 (6.883009e+00 5.835062e+00 5.645941e-01 2.968410e-03 2.940115e-04 2.411552e-05 )
 (0.000000e+00 1.716818e+01 3.594297e+00 4.277103e-03 3.142627e-04 1.399794e-05 )
 (0.000000e+00 0.000000e+00 3.240370e+01 1.322008e+00 3.064806e-03 1.443923e-04 )
 (0.000000e+00 0.000000e+00 0.000000e+00 2.636428e+01 1.133024e+00 0.000000e+00 )
 (0.000000e+00 0.000000e+00 0.000000e+00 0.000000e+00 2.791914e+01 4.169095e-01 )
 (0.000000e+00 0.000000e+00 0.000000e+00 0.000000e+00 0.000000e+00 2.918226e+01 )
 );

 sigmaDisapp nonuniform List<scalar> 6 (6.945437e+00 3.989570e+00 1.990106e+00 2.280191e+00 2.577340e+00 4.699021e+00  );

 chiPrompt nonuniform List<scalar> 6 (3.640117e-01 5.129334e-01 1.214452e-01 1.439623e-03 1.616543e-04 8.421541e-06  );

 chiDelayed nonuniform List<scalar> 6 (3.298506e-03 3.878751e-01 5.836838e-01 2.248282e-02 2.527012e-03 1.327799e-04  );

 Beta nonuniform List<scalar> 6 (2.582803e-04 6.972014e-04 5.567656e-04 1.140072e-03 3.771087e-04 1.410668e-04  );

 lambda nonuniform List<scalar> 6 (1.289038e-02 3.466888e-02 1.194127e-01 2.900216e-01 8.409852e-01 2.580716e+00  );

 discFactor nonuniform List<scalar> 6 (1.000000e+00 1.000000e+00 1.000000e+00 1.000000e+00 1.000000e+00 1.000000e+00  );

 integralFlux nonuniform List<scalar> 6 (1.000000e+00 1.000000e+00 1.000000e+00 1.000000e+00 1.000000e+00 1.000000e+00  );

 }

); 
